'WAVEWATCH III SPECTRA'     32    36     1 'Inlet                         '
 0.500E-01 0.550E-01 0.605E-01 0.666E-01 0.732E-01 0.805E-01 0.886E-01 0.974E-01
 0.107E+00 0.118E+00 0.130E+00 0.143E+00 0.157E+00 0.173E+00 0.190E+00 0.209E+00
 0.230E+00 0.253E+00 0.278E+00 0.306E+00 0.336E+00 0.370E+00 0.407E+00 0.448E+00
 0.492E+00 0.542E+00 0.596E+00 0.655E+00 0.721E+00 0.793E+00 0.872E+00 0.960E+00
  0.157E+01  0.140E+01  0.122E+01  0.105E+01  0.873E+00  0.698E+00  0.524E+00
  0.349E+00  0.175E+00  0.000E+00  0.611E+01  0.593E+01  0.576E+01  0.559E+01
  0.541E+01  0.524E+01  0.506E+01  0.489E+01  0.471E+01  0.454E+01  0.436E+01
  0.419E+01  0.401E+01  0.384E+01  0.367E+01  0.349E+01  0.332E+01  0.314E+01
  0.297E+01  0.279E+01  0.262E+01  0.244E+01  0.227E+01  0.209E+01  0.192E+01
  0.175E+01
20080823 000000
'aaa       '  40.59 -72.39      45.1   0.00 162.2   0.00 270.0
  0.000E+00  0.000E+00  0.000E+00  0.000E+00  0.152E-34  0.512E-27  0.342E-21
  0.118E-16  0.403E-13  0.304E-10  0.327E-08  0.185E-06  0.589E-05  0.469E-04
  0.152E-03  0.224E-02  0.207E-01  0.749E-02  0.629E-02  0.347E-01  0.439E-01
  0.190E-01  0.120E-01  0.708E-02  0.406E-02  0.257E-02  0.152E-02  0.213E-02
  0.193E-02  0.865E-03  0.377E-04  0.234E-04  0.000E+00  0.000E+00  0.000E+00
  0.000E+00  0.157E-35  0.282E-27  0.317E-21  0.173E-16  0.104E-12  0.143E-09
  0.203E-07  0.105E-05  0.211E-04  0.123E-03  0.393E-03  0.313E-02  0.218E-01
  0.891E-02  0.118E-01  0.569E-01  0.586E-01  0.286E-01  0.195E-01  0.112E-01
  0.597E-02  0.342E-02  0.157E-02  0.394E-02  0.308E-02  0.872E-03  0.162E-02
  0.101E-02  0.000E+00  0.000E+00  0.000E+00  0.000E+00  0.580E-37  0.580E-28
  0.115E-21  0.108E-16  0.125E-12  0.314E-09  0.644E-07  0.375E-05  0.692E-04
  0.440E-03  0.109E-02  0.450E-02  0.180E-01  0.104E-01  0.220E-01  0.672E-01
  0.613E-01  0.372E-01  0.247E-01  0.138E-01  0.692E-02  0.119E-02  0.000E+00
  0.297E-02  0.141E-02  0.107E-02  0.139E-02  0.863E-03  0.000E+00  0.000E+00
  0.000E+00  0.000E+00  0.000E+00  0.441E-29  0.177E-22  0.255E-17  0.700E-13
  0.368E-09  0.111E-06  0.733E-05  0.152E-03  0.138E-02  0.387E-02  0.112E-01
  0.217E-01  0.177E-01  0.415E-01  0.727E-01  0.595E-01  0.419E-01  0.315E-01
  0.202E-01  0.113E-01  0.931E-02  0.783E-02  0.718E-02  0.436E-02  0.282E-02
  0.200E-02  0.124E-02  0.000E+00  0.000E+00  0.000E+00  0.000E+00  0.000E+00
  0.219E-30  0.396E-23  0.568E-18  0.287E-13  0.290E-09  0.120E-06  0.917E-05
  0.243E-03  0.308E-02  0.122E-01  0.323E-01  0.453E-01  0.456E-01  0.761E-01
  0.741E-01  0.529E-01  0.363E-01  0.242E-01  0.787E-02  0.300E-02  0.177E-02
  0.147E-02  0.343E-02  0.286E-02  0.946E-03  0.597E-03  0.371E-03  0.000E+00
  0.000E+00  0.000E+00  0.000E+00  0.000E+00  0.169E-30  0.104E-23  0.265E-18
  0.134E-13  0.146E-09  0.803E-07  0.781E-05  0.295E-03  0.492E-02  0.260E-01
  0.655E-01  0.937E-01  0.914E-01  0.108E+00  0.778E-01  0.594E-01  0.489E-01
  0.418E-01  0.343E-01  0.211E-01  0.194E-01  0.116E-01  0.103E-01  0.700E-02
  0.415E-02  0.198E-02  0.123E-02  0.000E+00  0.000E+00  0.000E+00  0.000E+00
  0.000E+00  0.680E-30  0.181E-23  0.235E-18  0.565E-14  0.440E-10  0.297E-07
  0.428E-05  0.249E-03  0.588E-02  0.370E-01  0.932E-01  0.158E+00  0.148E+00
  0.147E+00  0.839E-01  0.549E-01  0.285E-01  0.278E-01  0.607E-02  0.322E-02
  0.554E-02  0.546E-02  0.264E-02  0.229E-02  0.127E-02  0.786E-03  0.488E-03
  0.000E+00  0.000E+00  0.000E+00  0.000E+00  0.000E+00  0.108E-29  0.474E-23
  0.496E-18  0.661E-14  0.250E-10  0.152E-07  0.273E-05  0.200E-03  0.577E-02
  0.403E-01  0.115E+00  0.251E+00  0.274E+00  0.231E+00  0.107E+00  0.834E-01
  0.562E-01  0.614E-01  0.541E-01  0.416E-01  0.248E-01  0.167E-01  0.105E-01
  0.720E-02  0.439E-02  0.264E-02  0.164E-02  0.000E+00  0.000E+00  0.000E+00
  0.000E+00  0.000E+00  0.706E-30  0.560E-23  0.876E-18  0.159E-13  0.563E-10
  0.289E-07  0.353E-05  0.190E-03  0.477E-02  0.367E-01  0.140E+00  0.377E+00
  0.432E+00  0.277E+00  0.117E+00  0.603E-01  0.755E-02  0.173E-01  0.101E-01
  0.115E-01  0.658E-02  0.530E-02  0.346E-02  0.239E-02  0.143E-02  0.889E-03
  0.552E-03  0.000E+00  0.000E+00  0.000E+00  0.000E+00  0.000E+00  0.187E-30
  0.261E-23  0.709E-18  0.225E-13  0.103E-09  0.432E-07  0.375E-05  0.138E-03
  0.299E-02  0.254E-01  0.135E+00  0.465E+00  0.518E+00  0.308E+00  0.151E+00
  0.115E+00  0.674E-01  0.682E-01  0.665E-01  0.430E-01  0.267E-01  0.158E-01
  0.103E-01  0.736E-02  0.420E-02  0.268E-02  0.166E-02  0.000E+00  0.000E+00
  0.000E+00  0.000E+00  0.000E+00  0.248E-31  0.643E-24  0.376E-18  0.199E-13
  0.118E-09  0.441E-07  0.337E-05  0.998E-04  0.187E-02  0.161E-01  0.116E+00
  0.492E+00  0.496E+00  0.311E+00  0.124E+00  0.586E-01  0.653E-03  0.139E-02
  0.173E-01  0.130E-01  0.831E-02  0.404E-02  0.344E-02  0.243E-02  0.129E-02
  0.104E-02  0.648E-03  0.000E+00  0.000E+00  0.000E+00  0.000E+00  0.000E+00
  0.393E-31  0.892E-24  0.393E-18  0.166E-13  0.973E-10  0.418E-07  0.385E-05
  0.144E-03  0.271E-02  0.232E-01  0.130E+00  0.489E+00  0.498E+00  0.331E+00
  0.144E+00  0.134E+00  0.629E-01  0.818E-01  0.754E-01  0.427E-01  0.265E-01
  0.183E-01  0.112E-01  0.685E-02  0.477E-02  0.305E-02  0.189E-02  0.000E+00
  0.000E+00  0.000E+00  0.000E+00  0.000E+00  0.103E-30  0.167E-23  0.430E-18
  0.109E-13  0.568E-10  0.300E-07  0.366E-05  0.189E-03  0.437E-02  0.335E-01
  0.121E+00  0.410E+00  0.491E+00  0.321E+00  0.108E+00  0.587E-01  0.420E-02
  0.377E-02  0.196E-01  0.157E-01  0.832E-02  0.644E-02  0.408E-02  0.292E-02
  0.178E-02  0.981E-03  0.609E-03  0.000E+00  0.000E+00  0.000E+00  0.000E+00
  0.000E+00  0.119E-30  0.143E-23  0.291E-18  0.541E-14  0.259E-10  0.158E-07
  0.265E-05  0.181E-03  0.491E-02  0.323E-01  0.955E-01  0.310E+00  0.410E+00
  0.327E+00  0.128E+00  0.124E+00  0.536E-01  0.813E-01  0.686E-01  0.440E-01
  0.285E-01  0.177E-01  0.112E-01  0.754E-02  0.482E-02  0.302E-02  0.187E-02
  0.000E+00  0.000E+00  0.000E+00  0.000E+00  0.000E+00  0.714E-31  0.814E-24
  0.204E-18  0.612E-14  0.364E-10  0.218E-07  0.303E-05  0.180E-03  0.454E-02
  0.281E-01  0.728E-01  0.195E+00  0.270E+00  0.264E+00  0.107E+00  0.675E-01
  0.167E-01  0.000E+00  0.132E-01  0.100E-01  0.879E-02  0.625E-02  0.337E-02
  0.217E-02  0.158E-02  0.124E-02  0.768E-03  0.000E+00  0.000E+00  0.000E+00
  0.000E+00  0.000E+00  0.308E-31  0.475E-24  0.206E-18  0.110E-13  0.880E-10
  0.444E-07  0.414E-05  0.164E-03  0.353E-02  0.233E-01  0.579E-01  0.109E+00
  0.163E+00  0.195E+00  0.128E+00  0.872E-01  0.542E-01  0.510E-01  0.572E-01
  0.406E-01  0.267E-01  0.171E-01  0.109E-01  0.694E-02  0.398E-02  0.253E-02
  0.157E-02  0.000E+00  0.000E+00  0.000E+00  0.000E+00  0.000E+00  0.116E-31
  0.265E-24  0.181E-18  0.125E-13  0.117E-09  0.498E-07  0.392E-05  0.118E-03
  0.219E-02  0.137E-01  0.410E-01  0.644E-01  0.933E-01  0.136E+00  0.112E+00
  0.596E-01  0.307E-01  0.195E-01  0.349E-02  0.708E-02  0.475E-02  0.441E-02
  0.342E-02  0.226E-02  0.110E-02  0.887E-03  0.551E-03  0.000E+00  0.000E+00
  0.000E+00  0.000E+00  0.000E+00  0.159E-31  0.412E-24  0.203E-18  0.108E-13
  0.938E-10  0.362E-07  0.269E-05  0.699E-04  0.105E-02  0.566E-02  0.212E-01
  0.381E-01  0.453E-01  0.870E-01  0.115E+00  0.744E-01  0.533E-01  0.429E-01
  0.355E-01  0.235E-01  0.205E-01  0.138E-01  0.940E-02  0.608E-02  0.401E-02
  0.242E-02  0.150E-02  0.000E+00  0.000E+00  0.000E+00  0.000E+00  0.000E+00
  0.907E-31  0.145E-23  0.331E-18  0.829E-14  0.520E-10  0.198E-07  0.149E-05
  0.366E-04  0.398E-03  0.197E-02  0.852E-02  0.231E-01  0.212E-01  0.427E-01
  0.107E+00  0.699E-01  0.404E-01  0.245E-01  0.132E-02  0.304E-02  0.479E-04
  0.437E-03  0.146E-02  0.106E-02  0.109E-02  0.671E-03  0.417E-03  0.000E+00
  0.000E+00  0.000E+00  0.000E+00  0.000E+00  0.267E-30  0.226E-23  0.359E-18
  0.500E-14  0.201E-10  0.722E-08  0.587E-06  0.159E-04  0.133E-03  0.614E-03
  0.325E-02  0.157E-01  0.134E-01  0.197E-01  0.781E-01  0.794E-01  0.483E-01
  0.306E-01  0.211E-01  0.128E-01  0.126E-01  0.854E-02  0.669E-02  0.534E-02
  0.325E-02  0.235E-02  0.146E-02  0.000E+00  0.000E+00  0.000E+00  0.000E+00
  0.000E+00  0.420E-30  0.174E-23  0.206E-18  0.203E-14  0.487E-11  0.143E-08
  0.138E-06  0.480E-05  0.448E-04  0.193E-03  0.138E-02  0.130E-01  0.133E-01
  0.103E-01  0.434E-01  0.701E-01  0.385E-01  0.216E-01  0.133E-01  0.600E-02
  0.266E-02  0.000E+00  0.304E-04  0.192E-03  0.389E-03  0.137E-02  0.850E-03
  0.000E+00  0.000E+00  0.000E+00  0.000E+00  0.000E+00  0.294E-29  0.755E-24
  0.697E-19  0.575E-15  0.780E-12  0.177E-09  0.226E-07  0.116E-05  0.192E-04
  0.797E-04  0.757E-03  0.131E-01  0.153E-01  0.621E-02  0.237E-01  0.500E-01
  0.255E-01  0.124E-01  0.918E-02  0.659E-02  0.448E-02  0.301E-02  0.224E-02
  0.291E-02  0.239E-02  0.846E-04  0.525E-04  0.000E+00  0.000E+00  0.000E+00
  0.000E+00  0.000E+00  0.586E-28  0.672E-23  0.164E-19  0.116E-15  0.860E-13
  0.195E-10  0.554E-08  0.522E-06  0.143E-04  0.519E-04  0.586E-03  0.129E-01
  0.149E-01  0.387E-02  0.128E-01  0.267E-01  0.117E-01  0.615E-02  0.485E-02
  0.364E-02  0.244E-02  0.126E-02  0.574E-03  0.120E-03  0.000E+00  0.900E-03
  0.559E-03  0.000E+00  0.000E+00  0.000E+00  0.000E+00  0.000E+00  0.101E-26
  0.992E-27  0.729E-20  0.335E-16  0.166E-13  0.991E-11  0.789E-08  0.740E-06
  0.167E-04  0.421E-04  0.573E-03  0.104E-01  0.959E-02  0.205E-02  0.504E-02
  0.976E-02  0.325E-02  0.159E-02  0.105E-02  0.906E-03  0.881E-03  0.537E-03
  0.160E-03  0.226E-04  0.000E+00  0.000E+00  0.000E+00  0.000E+00  0.000E+00
  0.000E+00  0.000E+00  0.000E+00  0.138E-25  0.753E-22  0.934E-20  0.301E-16
  0.131E-13  0.100E-10  0.134E-07  0.113E-05  0.219E-04  0.270E-04  0.342E-03
  0.472E-02  0.370E-02  0.805E-03  0.118E-02  0.212E-02  0.750E-03  0.298E-03
  0.150E-03  0.169E-03  0.286E-03  0.241E-03  0.126E-03  0.833E-04  0.589E-04
  0.612E-04  0.380E-04  0.000E+00  0.000E+00  0.000E+00  0.000E+00  0.000E+00
  0.151E-24  0.928E-31  0.102E-19  0.386E-16  0.960E-14  0.508E-11  0.932E-08
  0.870E-06  0.179E-04  0.118E-04  0.995E-04  0.107E-02  0.828E-03  0.198E-03
  0.170E-03  0.218E-03  0.120E-03  0.466E-04  0.125E-04  0.801E-05  0.776E-05
  0.743E-05  0.181E-04  0.704E-05  0.244E-05  0.124E-05  0.772E-06  0.000E+00
  0.000E+00  0.000E+00  0.000E+00  0.543E-36  0.122E-23  0.525E-21  0.299E-20
  0.361E-16  0.658E-14  0.177E-11  0.319E-08  0.327E-06  0.697E-05  0.310E-05
  0.139E-04  0.119E-03  0.957E-04  0.238E-04  0.169E-04  0.156E-04  0.118E-04
  0.621E-05  0.211E-05  0.103E-05  0.120E-05  0.211E-05  0.132E-05  0.974E-06
  0.837E-06  0.641E-06  0.398E-06  0.000E+00  0.000E+00  0.000E+00  0.000E+00
  0.693E-35  0.000E+00  0.390E-33  0.631E-20  0.157E-16  0.323E-14  0.347E-12
  0.339E-09  0.399E-07  0.103E-05  0.392E-06  0.613E-06  0.478E-05  0.407E-05
  0.101E-05  0.786E-06  0.621E-06  0.552E-06  0.390E-06  0.180E-06  0.126E-06
  0.109E-06  0.580E-07  0.211E-06  0.142E-06  0.932E-07  0.589E-07  0.366E-07
  0.000E+00  0.000E+00  0.000E+00  0.000E+00  0.810E-34  0.635E-23  0.334E-20
  0.214E-19  0.334E-17  0.906E-15  0.548E-13  0.962E-11  0.138E-08  0.432E-07
  0.186E-07  0.821E-08  0.363E-07  0.389E-07  0.132E-07  0.102E-07  0.827E-08
  0.664E-08  0.392E-08  0.250E-08  0.156E-08  0.402E-09  0.708E-10  0.102E-09
  0.624E-10  0.398E-10  0.220E-10  0.137E-10  0.000E+00  0.000E+00  0.000E+00
  0.000E+00  0.103E-32  0.112E-23  0.303E-20  0.717E-19  0.133E-17  0.190E-15
  0.106E-13  0.125E-11  0.108E-09  0.242E-08  0.693E-09  0.342E-09  0.644E-09
  0.355E-09  0.267E-09  0.296E-09  0.577E-09  0.652E-09  0.118E-08  0.653E-09
  0.817E-09  0.211E-08  0.166E-08  0.257E-08  0.166E-08  0.109E-08  0.698E-09
  0.433E-09  0.000E+00  0.000E+00  0.000E+00  0.000E+00  0.454E-32  0.583E-24
  0.579E-20  0.219E-19  0.525E-17  0.640E-15  0.789E-13  0.834E-10  0.646E-08
  0.102E-06  0.264E-07  0.443E-07  0.308E-06  0.129E-06  0.532E-07  0.372E-07
  0.366E-07  0.297E-07  0.284E-07  0.224E-07  0.483E-07  0.208E-06  0.292E-06
  0.149E-05  0.983E-06  0.642E-06  0.406E-06  0.252E-06  0.000E+00  0.000E+00
  0.000E+00  0.000E+00  0.926E-33  0.219E-23  0.120E-19  0.150E-18  0.166E-16
  0.237E-14  0.114E-11  0.188E-08  0.132E-06  0.145E-05  0.463E-06  0.292E-05
  0.239E-04  0.986E-05  0.315E-05  0.194E-05  0.146E-05  0.113E-05  0.760E-06
  0.388E-06  0.309E-06  0.106E-05  0.865E-06  0.772E-05  0.510E-05  0.335E-05
  0.212E-05  0.132E-05  0.000E+00  0.000E+00  0.000E+00  0.000E+00  0.408E-34
  0.207E-25  0.141E-27  0.417E-19  0.425E-16  0.905E-14  0.891E-11  0.138E-07
  0.904E-06  0.723E-05  0.416E-05  0.646E-04  0.402E-03  0.149E-03  0.494E-04
  0.322E-04  0.207E-04  0.151E-04  0.914E-05  0.678E-05  0.312E-05  0.435E-05
  0.219E-06  0.115E-04  0.668E-05  0.375E-05  0.426E-05  0.265E-05  0.000E+00
  0.000E+00  0.000E+00  0.000E+00  0.169E-34  0.690E-26  0.156E-21  0.210E-18
  0.204E-15  0.496E-13  0.353E-10  0.363E-07  0.229E-05  0.164E-04  0.209E-04
  0.457E-03  0.267E-02  0.857E-03  0.310E-03  0.378E-03  0.268E-03  0.151E-03
  0.923E-04  0.503E-04  0.206E-04  0.340E-04  0.118E-04  0.346E-04  0.393E-04
  0.361E-04  0.619E-04  0.384E-04  0.000E+00  0.000E+00  0.000E+00  0.000E+00
  0.142E-33  0.560E-27  0.918E-22  0.148E-17  0.133E-14  0.312E-12  0.796E-10
  0.385E-07  0.232E-05  0.207E-04  0.492E-04  0.129E-02  0.945E-02  0.275E-02
  0.117E-02  0.320E-02  0.316E-02  0.123E-02  0.777E-03  0.517E-03  0.240E-03
  0.379E-03  0.191E-03  0.218E-03  0.634E-04  0.171E-04  0.262E-05  0.163E-05
  0.000E+00  0.000E+00  0.000E+00  0.000E+00  0.112E-33  0.634E-27  0.230E-21
  0.443E-17  0.849E-14  0.312E-11  0.348E-09  0.441E-07  0.230E-05  0.255E-04
  0.730E-04  0.178E-02  0.165E-01  0.544E-02  0.302E-02  0.137E-01  0.173E-01
  0.666E-02  0.391E-02  0.251E-02  0.138E-02  0.105E-02  0.490E-03  0.673E-03
  0.386E-03  0.797E-04  0.319E-04  0.198E-04
20080915 000000
'aaa       '  40.59 -72.39      45.1   0.00 162.2   0.00 270.0
  0.000E+00  0.000E+00  0.000E+00  0.000E+00  0.154E-34  0.712E-27  0.482E-21
  0.158E-16  0.489E-13  0.372E-10  0.385E-08  0.205E-06  0.628E-05  0.481E-04
  0.153E-03  0.226E-02  0.209E-01  0.761E-02  0.610E-02  0.358E-01  0.404E-01
  0.175E-01  0.104E-01  0.552E-02  0.474E-02  0.226E-02  0.146E-02  0.651E-03
  0.448E-03  0.933E-04  0.117E-04  0.727E-05  0.000E+00  0.000E+00  0.000E+00
  0.000E+00  0.186E-35  0.411E-27  0.451E-21  0.231E-16  0.124E-12  0.174E-09
  0.235E-07  0.118E-05  0.239E-04  0.130E-03  0.408E-03  0.319E-02  0.218E-01
  0.895E-02  0.114E-01  0.578E-01  0.536E-01  0.262E-01  0.166E-01  0.907E-02
  0.637E-02  0.334E-02  0.246E-02  0.100E-02  0.912E-03  0.230E-03  0.337E-03
  0.210E-03  0.000E+00  0.000E+00  0.000E+00  0.000E+00  0.726E-37  0.857E-28
  0.160E-21  0.141E-16  0.147E-12  0.370E-09  0.713E-07  0.410E-05  0.766E-04
  0.471E-03  0.117E-02  0.475E-02  0.180E-01  0.106E-01  0.215E-01  0.685E-01
  0.538E-01  0.317E-01  0.202E-01  0.121E-01  0.722E-02  0.389E-02  0.282E-02
  0.136E-02  0.146E-02  0.958E-03  0.609E-03  0.378E-03  0.000E+00  0.000E+00
  0.000E+00  0.000E+00  0.000E+00  0.657E-29  0.239E-22  0.322E-17  0.810E-13
  0.409E-09  0.118E-06  0.774E-05  0.160E-03  0.145E-02  0.408E-02  0.120E-01
  0.220E-01  0.186E-01  0.409E-01  0.757E-01  0.509E-01  0.343E-01  0.216E-01
  0.135E-01  0.852E-02  0.390E-02  0.174E-02  0.144E-02  0.420E-03  0.553E-03
  0.369E-03  0.229E-03  0.000E+00  0.000E+00  0.000E+00  0.000E+00  0.000E+00
  0.341E-30  0.551E-23  0.730E-18  0.337E-13  0.313E-09  0.125E-06  0.948E-05
  0.247E-03  0.317E-02  0.125E-01  0.337E-01  0.459E-01  0.480E-01  0.729E-01
  0.791E-01  0.462E-01  0.346E-01  0.220E-01  0.145E-01  0.105E-01  0.548E-02
  0.504E-02  0.214E-02  0.119E-02  0.537E-03  0.798E-03  0.496E-03  0.000E+00
  0.000E+00  0.000E+00  0.000E+00  0.000E+00  0.268E-30  0.144E-23  0.343E-18
  0.164E-13  0.161E-09  0.848E-07  0.809E-05  0.298E-03  0.495E-02  0.260E-01
  0.662E-01  0.944E-01  0.955E-01  0.102E+00  0.785E-01  0.429E-01  0.346E-01
  0.223E-01  0.175E-01  0.110E-01  0.651E-02  0.470E-02  0.276E-02  0.686E-03
  0.121E-02  0.134E-02  0.831E-03  0.000E+00  0.000E+00  0.000E+00  0.000E+00
  0.000E+00  0.957E-30  0.237E-23  0.291E-18  0.696E-14  0.509E-10  0.321E-07
  0.453E-05  0.256E-03  0.587E-02  0.368E-01  0.916E-01  0.157E+00  0.148E+00
  0.137E+00  0.854E-01  0.487E-01  0.397E-01  0.293E-01  0.261E-01  0.220E-01
  0.120E-01  0.960E-02  0.711E-02  0.494E-02  0.292E-02  0.156E-02  0.967E-03
  0.000E+00  0.000E+00  0.000E+00  0.000E+00  0.000E+00  0.139E-29  0.585E-23
  0.586E-18  0.766E-14  0.295E-10  0.165E-07  0.293E-05  0.209E-03  0.581E-02
  0.398E-01  0.114E+00  0.246E+00  0.268E+00  0.206E+00  0.980E-01  0.561E-01
  0.407E-01  0.223E-01  0.170E-01  0.111E-01  0.238E-02  0.335E-02  0.205E-02
  0.124E-02  0.170E-02  0.473E-03  0.294E-03  0.000E+00  0.000E+00  0.000E+00
  0.000E+00  0.000E+00  0.886E-30  0.695E-23  0.101E-17  0.178E-13  0.649E-10
  0.308E-07  0.373E-05  0.199E-03  0.486E-02  0.362E-01  0.142E+00  0.369E+00
  0.432E+00  0.248E+00  0.115E+00  0.636E-01  0.466E-01  0.343E-01  0.271E-01
  0.299E-01  0.193E-01  0.119E-01  0.804E-02  0.510E-02  0.323E-02  0.200E-02
  0.124E-02  0.000E+00  0.000E+00  0.000E+00  0.000E+00  0.000E+00  0.245E-30
  0.334E-23  0.825E-18  0.251E-13  0.115E-09  0.447E-07  0.387E-05  0.144E-03
  0.307E-02  0.252E-01  0.139E+00  0.455E+00  0.519E+00  0.259E+00  0.128E+00
  0.647E-01  0.385E-01  0.201E-01  0.211E-01  0.953E-02  0.299E-02  0.667E-02
  0.485E-02  0.266E-02  0.857E-03  0.157E-02  0.975E-03  0.000E+00  0.000E+00
  0.000E+00  0.000E+00  0.000E+00  0.390E-31  0.880E-24  0.456E-18  0.227E-13
  0.128E-09  0.443E-07  0.340E-05  0.103E-03  0.192E-02  0.162E-01  0.122E+00
  0.486E+00  0.518E+00  0.273E+00  0.144E+00  0.734E-01  0.455E-01  0.350E-01
  0.298E-01  0.324E-01  0.156E-01  0.119E-01  0.795E-02  0.515E-02  0.317E-02
  0.215E-02  0.133E-02  0.000E+00  0.000E+00  0.000E+00  0.000E+00  0.000E+00
  0.651E-31  0.120E-23  0.479E-18  0.193E-13  0.105E-09  0.419E-07  0.389E-05
  0.148E-03  0.279E-02  0.235E-01  0.131E+00  0.478E+00  0.501E+00  0.276E+00
  0.130E+00  0.665E-01  0.343E-01  0.197E-01  0.215E-01  0.859E-02  0.194E-02
  0.645E-02  0.443E-02  0.264E-02  0.243E-02  0.160E-02  0.993E-03  0.000E+00
  0.000E+00  0.000E+00  0.000E+00  0.000E+00  0.165E-30  0.214E-23  0.509E-18
  0.127E-13  0.626E-10  0.304E-07  0.376E-05  0.195E-03  0.445E-02  0.333E-01
  0.120E+00  0.405E+00  0.496E+00  0.288E+00  0.122E+00  0.709E-01  0.488E-01
  0.357E-01  0.349E-01  0.337E-01  0.205E-01  0.128E-01  0.872E-02  0.580E-02
  0.366E-02  0.221E-02  0.137E-02  0.000E+00  0.000E+00  0.000E+00  0.000E+00
  0.000E+00  0.183E-30  0.176E-23  0.334E-18  0.629E-14  0.294E-10  0.165E-07
  0.279E-05  0.187E-03  0.489E-02  0.311E-01  0.938E-01  0.304E+00  0.398E+00
  0.282E+00  0.113E+00  0.616E-01  0.387E-01  0.155E-01  0.224E-01  0.930E-02
  0.281E-02  0.247E-02  0.516E-02  0.211E-02  0.267E-02  0.163E-02  0.101E-02
  0.000E+00  0.000E+00  0.000E+00  0.000E+00  0.000E+00  0.106E-30  0.101E-23
  0.234E-18  0.705E-14  0.418E-10  0.230E-07  0.318E-05  0.184E-03  0.445E-02
  0.263E-01  0.719E-01  0.189E+00  0.267E+00  0.240E+00  0.111E+00  0.640E-01
  0.497E-01  0.350E-01  0.252E-01  0.303E-01  0.210E-01  0.128E-01  0.843E-02
  0.518E-02  0.343E-02  0.237E-02  0.147E-02  0.000E+00  0.000E+00  0.000E+00
  0.000E+00  0.000E+00  0.458E-31  0.618E-24  0.244E-18  0.127E-13  0.996E-10
  0.453E-07  0.420E-05  0.165E-03  0.347E-02  0.213E-01  0.575E-01  0.104E+00
  0.165E+00  0.176E+00  0.108E+00  0.573E-01  0.415E-01  0.221E-01  0.143E-01
  0.594E-02  0.802E-02  0.290E-02  0.135E-03  0.302E-02  0.223E-02  0.113E-02
  0.700E-03  0.000E+00  0.000E+00  0.000E+00  0.000E+00  0.000E+00  0.182E-31
  0.361E-24  0.221E-18  0.145E-13  0.129E-09  0.486E-07  0.382E-05  0.118E-03
  0.217E-02  0.126E-01  0.411E-01  0.621E-01  0.100E+00  0.128E+00  0.108E+00
  0.544E-01  0.419E-01  0.295E-01  0.211E-01  0.215E-01  0.122E-01  0.106E-01
  0.576E-02  0.324E-02  0.309E-02  0.194E-02  0.120E-02  0.000E+00  0.000E+00
  0.000E+00  0.000E+00  0.000E+00  0.266E-31  0.546E-24  0.247E-18  0.125E-13
  0.102E-09  0.344E-07  0.256E-05  0.694E-04  0.104E-02  0.546E-02  0.216E-01
  0.376E-01  0.495E-01  0.843E-01  0.112E+00  0.552E-01  0.365E-01  0.245E-01
  0.137E-01  0.746E-02  0.373E-02  0.224E-02  0.000E+00  0.112E-02  0.149E-02
  0.140E-02  0.869E-03  0.000E+00  0.000E+00  0.000E+00  0.000E+00  0.000E+00
  0.155E-30  0.184E-23  0.385E-18  0.956E-14  0.568E-10  0.188E-07  0.143E-05
  0.369E-04  0.401E-03  0.201E-02  0.890E-02  0.231E-01  0.222E-01  0.416E-01
  0.107E+00  0.613E-01  0.388E-01  0.244E-01  0.151E-01  0.111E-01  0.687E-02
  0.597E-02  0.491E-02  0.264E-02  0.207E-02  0.140E-02  0.868E-03  0.000E+00
  0.000E+00  0.000E+00  0.000E+00  0.000E+00  0.463E-30  0.289E-23  0.408E-18
  0.572E-14  0.224E-10  0.707E-08  0.584E-06  0.165E-04  0.136E-03  0.654E-03
  0.348E-02  0.157E-01  0.139E-01  0.194E-01  0.811E-01  0.666E-01  0.378E-01
  0.213E-01  0.137E-01  0.895E-02  0.483E-02  0.314E-02  0.461E-03  0.615E-03
  0.000E+00  0.516E-03  0.320E-03  0.000E+00  0.000E+00  0.000E+00  0.000E+00
  0.000E+00  0.651E-30  0.223E-23  0.238E-18  0.233E-14  0.559E-11  0.150E-08
  0.147E-06  0.520E-05  0.463E-04  0.209E-03  0.149E-02  0.132E-01  0.136E-01
  0.105E-01  0.467E-01  0.647E-01  0.331E-01  0.174E-01  0.125E-01  0.855E-02
  0.497E-02  0.399E-02  0.211E-02  0.945E-03  0.136E-02  0.553E-03  0.343E-03
  0.000E+00  0.000E+00  0.000E+00  0.000E+00  0.000E+00  0.283E-29  0.107E-23
  0.845E-19  0.684E-15  0.923E-12  0.200E-09  0.257E-07  0.128E-05  0.196E-04
  0.827E-04  0.782E-03  0.134E-01  0.154E-01  0.644E-02  0.251E-01  0.492E-01
  0.256E-01  0.116E-01  0.854E-02  0.600E-02  0.366E-02  0.271E-02  0.105E-02
  0.541E-03  0.305E-03  0.194E-03  0.120E-03  0.000E+00  0.000E+00  0.000E+00
  0.000E+00  0.000E+00  0.515E-28  0.637E-23  0.203E-19  0.142E-15  0.102E-12
  0.216E-10  0.572E-08  0.517E-06  0.140E-04  0.519E-04  0.583E-03  0.132E-01
  0.151E-01  0.397E-02  0.132E-01  0.265E-01  0.127E-01  0.593E-02  0.410E-02
  0.314E-02  0.193E-02  0.133E-02  0.547E-03  0.347E-03  0.206E-03  0.645E-05
  0.401E-05  0.000E+00  0.000E+00  0.000E+00  0.000E+00  0.000E+00  0.881E-27
  0.101E-26  0.673E-20  0.353E-16  0.160E-13  0.850E-11  0.697E-08  0.686E-06
  0.160E-04  0.418E-04  0.561E-03  0.103E-01  0.996E-02  0.212E-02  0.516E-02
  0.981E-02  0.364E-02  0.182E-02  0.112E-02  0.108E-02  0.779E-03  0.551E-03
  0.245E-03  0.159E-03  0.984E-04  0.356E-04  0.221E-04  0.000E+00  0.000E+00
  0.000E+00  0.000E+00  0.000E+00  0.121E-25  0.709E-22  0.626E-20  0.252E-16
  0.110E-13  0.863E-11  0.124E-07  0.108E-05  0.209E-04  0.269E-04  0.332E-03
  0.455E-02  0.389E-02  0.840E-03  0.120E-02  0.209E-02  0.782E-03  0.311E-03
  0.153E-03  0.173E-03  0.162E-03  0.122E-03  0.566E-04  0.372E-04  0.185E-04
  0.515E-06  0.320E-06  0.000E+00  0.000E+00  0.000E+00  0.000E+00  0.000E+00
  0.134E-24  0.112E-30  0.743E-20  0.313E-16  0.839E-14  0.459E-11  0.888E-08
  0.835E-06  0.172E-04  0.119E-04  0.953E-04  0.101E-02  0.879E-03  0.208E-03
  0.176E-03  0.222E-03  0.128E-03  0.480E-04  0.155E-04  0.121E-04  0.122E-04
  0.126E-04  0.663E-05  0.440E-05  0.246E-05  0.942E-06  0.585E-06  0.000E+00
  0.000E+00  0.000E+00  0.000E+00  0.494E-36  0.109E-23  0.504E-21  0.260E-20
  0.326E-16  0.605E-14  0.162E-11  0.295E-08  0.308E-06  0.667E-05  0.316E-05
  0.134E-04  0.114E-03  0.101E-03  0.253E-04  0.185E-04  0.163E-04  0.132E-04
  0.653E-05  0.237E-05  0.108E-05  0.501E-06  0.683E-06  0.327E-06  0.220E-06
  0.900E-07  0.288E-07  0.179E-07  0.000E+00  0.000E+00  0.000E+00  0.000E+00
  0.674E-35  0.000E+00  0.198E-33  0.577E-20  0.150E-16  0.304E-14  0.321E-12
  0.310E-09  0.369E-07  0.952E-06  0.409E-06  0.591E-06  0.454E-05  0.423E-05
  0.105E-05  0.860E-06  0.650E-06  0.672E-06  0.430E-06  0.184E-06  0.101E-06
  0.374E-07  0.154E-07  0.196E-07  0.593E-08  0.000E+00  0.000E+00  0.000E+00
  0.000E+00  0.000E+00  0.000E+00  0.000E+00  0.800E-34  0.590E-23  0.331E-20
  0.216E-19  0.308E-17  0.855E-15  0.515E-13  0.873E-11  0.125E-08  0.386E-07
  0.196E-07  0.809E-08  0.344E-07  0.412E-07  0.134E-07  0.107E-07  0.819E-08
  0.869E-08  0.601E-08  0.408E-08  0.213E-08  0.107E-08  0.494E-09  0.376E-09
  0.761E-10  0.243E-10  0.149E-10  0.926E-11  0.000E+00  0.000E+00  0.000E+00
  0.000E+00  0.104E-32  0.105E-23  0.295E-20  0.715E-19  0.128E-17  0.180E-15
  0.101E-13  0.122E-11  0.105E-09  0.229E-08  0.696E-09  0.328E-09  0.623E-09
  0.355E-09  0.266E-09  0.297E-09  0.518E-09  0.652E-09  0.106E-08  0.509E-09
  0.829E-09  0.466E-09  0.235E-09  0.459E-10  0.815E-11  0.146E-10  0.110E-10
  0.681E-11  0.000E+00  0.000E+00  0.000E+00  0.000E+00  0.460E-32  0.571E-24
  0.590E-20  0.224E-19  0.511E-17  0.631E-15  0.785E-13  0.826E-10  0.640E-08
  0.100E-06  0.263E-07  0.422E-07  0.292E-06  0.125E-06  0.504E-07  0.387E-07
  0.348E-07  0.307E-07  0.259E-07  0.129E-07  0.363E-07  0.442E-07  0.489E-07
  0.299E-07  0.740E-08  0.000E+00  0.000E+00  0.000E+00  0.000E+00  0.000E+00
  0.000E+00  0.000E+00  0.937E-33  0.217E-23  0.120E-19  0.150E-18  0.160E-16
  0.233E-14  0.110E-11  0.186E-08  0.131E-06  0.145E-05  0.467E-06  0.286E-05
  0.229E-04  0.965E-05  0.293E-05  0.204E-05  0.134E-05  0.121E-05  0.636E-06
  0.245E-06  0.529E-06  0.324E-06  0.101E-05  0.444E-06  0.112E-06  0.000E+00
  0.000E+00  0.000E+00  0.000E+00  0.000E+00  0.000E+00  0.000E+00  0.408E-34
  0.208E-25  0.164E-27  0.379E-19  0.413E-16  0.889E-14  0.844E-11  0.136E-07
  0.897E-06  0.724E-05  0.422E-05  0.650E-04  0.392E-03  0.149E-03  0.459E-04
  0.351E-04  0.190E-04  0.157E-04  0.794E-05  0.412E-05  0.780E-05  0.440E-05
  0.614E-05  0.205E-05  0.906E-06  0.229E-06  0.115E-08  0.715E-09  0.000E+00
  0.000E+00  0.000E+00  0.000E+00  0.165E-34  0.663E-26  0.156E-21  0.192E-18
  0.207E-15  0.492E-13  0.332E-10  0.355E-07  0.228E-05  0.164E-04  0.211E-04
  0.458E-03  0.264E-02  0.866E-03  0.290E-03  0.415E-03  0.246E-03  0.152E-03
  0.858E-04  0.352E-04  0.557E-04  0.419E-04  0.399E-04  0.148E-04  0.721E-05
  0.352E-05  0.000E+00  0.000E+00  0.000E+00  0.000E+00  0.000E+00  0.000E+00
  0.139E-33  0.571E-27  0.944E-22  0.147E-17  0.148E-14  0.333E-12  0.774E-10
  0.378E-07  0.233E-05  0.209E-04  0.491E-04  0.129E-02  0.943E-02  0.280E-02
  0.112E-02  0.343E-02  0.288E-02  0.119E-02  0.730E-03  0.385E-03  0.437E-03
  0.254E-03  0.218E-03  0.109E-03  0.554E-04  0.286E-04  0.113E-04  0.702E-05
  0.000E+00  0.000E+00  0.000E+00  0.000E+00  0.109E-33  0.746E-27  0.279E-21
  0.544E-17  0.103E-13  0.370E-11  0.382E-09  0.447E-07  0.232E-05  0.259E-04
  0.730E-04  0.178E-02  0.166E-01  0.554E-02  0.296E-02  0.145E-01  0.160E-01
  0.624E-02  0.379E-02  0.213E-02  0.225E-02  0.102E-02  0.753E-03  0.366E-03
  0.209E-03  0.116E-03  0.260E-04  0.161E-04
