
                 *** WAVEWATCH III  Input pre-processing ***  
               ===============================================

  Comment character is '$'

  Grid name : Inlet                         


  Description of inputs
 --------------------------------------------------
       Input type        : winds       
       Format type       : pre-processed file  

       Input grid dim.   : 3070       1
       Longitude range   :  -72.92  -72.03 (deg)
       Latitude range    :   40.38   40.99 (deg)


  Preprocessing data
 --------------------------------------------------

           Data file :
          ---------------------------------------
           Input grid dim.   : 3070       1
           Layout indicator  :    3
           Format indicator  :    1
           Unit number       :   20
           File name         : InletWindConstant.wnd                                            

       Opening input data file .....

       Opening output data file .....


  Processing data
 --------------------------------------------------
           Time : 2015/12/14 00:00:00 UTC
                  reading ....
                  writing ....
           Time : 2015/12/14 00:15:37 UTC
                  reading ....
                  writing ....
           Time : 2015/12/14 00:31:14 UTC
                  reading ....
                  writing ....
           Time : 2015/12/14 00:46:51 UTC
                  reading ....
                  writing ....
           Time : 2015/12/14 01:02:28 UTC
                  reading ....
                  writing ....
           Time : 2015/12/14 01:18:04 UTC
                  reading ....
                  writing ....
           Time : 2015/12/14 01:33:41 UTC
                  reading ....
                  writing ....
           Time : 2015/12/14 01:49:18 UTC
                  reading ....
                  writing ....
           Time : 2015/12/14 02:04:55 UTC
                  reading ....
                  writing ....
           Time : 2015/12/14 02:20:32 UTC
                  reading ....
                  writing ....
           Time : 2015/12/14 02:36:08 UTC
                  reading ....
                  writing ....
           Time : 2015/12/14 02:51:45 UTC
                  reading ....
                  writing ....
           Time : 2015/12/14 03:07:22 UTC
                  reading ....
                  writing ....
           Time : 2015/12/14 03:22:58 UTC
                  reading ....
                  writing ....
           Time : 2015/12/14 03:38:35 UTC
                  reading ....
                  writing ....
           Time : 2015/12/14 03:54:12 UTC
                  reading ....
                  writing ....
           Time : 2015/12/14 04:09:48 UTC
                  reading ....
                  writing ....
           Time : 2015/12/14 04:25:26 UTC
                  reading ....
                  writing ....
           Time : 2015/12/14 04:41:31 UTC
                  reading ....
                  writing ....
           Time : 2015/12/14 04:58:08 UTC
                  reading ....
                  writing ....
           Time : 2015/12/14 05:15:16 UTC
                  reading ....
                  writing ....
           Time : 2015/12/14 05:32:47 UTC
                  reading ....
                  writing ....
           Time : 2015/12/14 05:51:28 UTC
                  reading ....
                  writing ....
           Time : 2015/12/14 06:11:01 UTC
                  reading ....
                  writing ....
           Time : 2015/12/14 06:32:57 UTC
                  reading ....
                  writing ....
           Time : 2015/12/14 07:58:37 UTC
                  reading ....
                  writing ....
           Time : 2015/12/14 09:33:33 UTC
                  reading ....
                  writing ....
           Time : 2015/12/14 11:00:55 UTC
                  reading ....
                  writing ....
           Time : 2015/12/14 12:28:17 UTC
                  reading ....
                  writing ....
           Time : 2015/12/14 13:55:39 UTC
                  reading ....
                  writing ....
           Time : 2015/12/14 15:23:01 UTC
                  reading ....
                  writing ....
           Time : 2015/12/14 16:50:22 UTC
                  reading ....
                  writing ....
           Time : 2015/12/14 18:17:44 UTC
                  reading ....
                  writing ....
           Time : 2015/12/14 19:45:05 UTC
                  reading ....
                  writing ....
           Time : 2015/12/14 21:12:26 UTC
                  reading ....
                  writing ....
           Time : 2015/12/14 22:39:46 UTC
                  reading ....
                  writing ....
           Time : 2015/12/15 00:07:07 UTC
                  reading ....
                  writing ....
           Time : 2015/12/15 01:34:27 UTC
                  reading ....
                  writing ....
           Time : 2015/12/15 03:01:47 UTC
                  reading ....
                  writing ....
           Time : 2015/12/15 04:29:07 UTC
                  reading ....
                  writing ....
           Time : 2015/12/15 05:56:27 UTC
                  reading ....
                  writing ....


  End of program 
 =========================================
         WAVEWATCH III Input preprocessing 

