
                     *** WAVEWATCH III Program shell ***      
               ===============================================

  Comment character is '$'


  Input fields : 
 --------------------------------------------------
       water levels   ---/NO                      
       currents       ---/NO                      
       winds          YES/--                      
       ice fields     ---/NO                      
       mean param.    ---/NO                      
       1D spectra     ---/NO                      
       2D spectra     ---/NO                      
 

  Time interval : 
 --------------------------------------------------
       Starting time : 2015/12/14 00:00:00 UTC
       Ending time   : 2015/12/15 06:00:00 UTC


  Output requests : 
 --------------------------------------------------
       Multiple dedicated output processes.

       Type 1 : Fields of mean wave parameters
      -----------------------------------------
            From     : 2015/12/14 00:00:00 UTC
            To       : 2015/12/15 06:00:00 UTC
            Interval :            00:05:00

            Fields   : Wind speed          
                       Wave height         
                       Peak frequency      
                       Mean wave dir. a1b1 
                       Peak direction      
                       Radiation stresses  

       Type 2 : Point output                  
      -----------------------------------------
            From     : 2015/12/14 00:00:00 UTC
            To       : 2015/12/15 06:00:00 UTC
            Interval :            00:05:00

            Point  1 :   -72.39   40.59  aaa       

       Type 4 : Restart files                 
      -----------------------------------------
            From     : 2008/09/10 00:00:00 UTC
            To       : 2008/09/14 21:00:00 UTC
            Interval :          1 00:00:00

            Dates out of run dates : output Track point output deactivated
            Dates out of run dates : output Restart files deactivated
            Dates out of run dates : output Nesting data deactivated
            Dates out of run dates : output Partitioned wave field data deactivated

  Initializations :
 --------------------------------------------------
       Preparing input files ...
            water levels : file not needed
            currents     : file not needed
            winds        : file OK
            ice fields   : file not needed
            mean param.  : file not needed
            1D spectra   : file not needed
            2D spectra   : file not needed
       Wave model ...
 Thread         529 # local nodes            4
 Thread         529 # local sides          24
 Thread         532 # local nodes            4
 Thread         532 # local sides          24
 Thread         533 # local nodes            4
 Thread         533 # local sides          24
 Thread         536 # local nodes            4
 Thread         536 # local sides          25
 Thread         538 # local nodes            4
 Thread         538 # local sides          22
 Thread         539 # local nodes            4
 Thread         539 # local sides          23
 Thread         528 # local nodes            4
 Thread         528 # local sides          23
 Thread         530 # local nodes            4
 Thread         530 # local sides          24
 Thread         531 # local nodes            4
 Thread         531 # local sides          23
 Thread         534 # local nodes            4
 Thread         534 # local sides          26
 Thread         535 # local nodes            4
 Thread         535 # local sides          23
 Thread         537 # local nodes            4
 Thread         537 # local sides          24
 Thread         200 # local nodes            4
 Thread         200 # local sides          26
 Thread         194 # local nodes            4
 Thread         194 # local sides          26
 Thread         196 # local nodes            4
 Thread         196 # local sides          23
 Thread         201 # local nodes            4
 Thread         201 # local sides          25
 Thread         202 # local nodes            4
 Thread         202 # local sides          23
 Thread         203 # local nodes            4
 Thread         203 # local sides          24
 Thread         199 # local nodes            4
 Thread         199 # local sides          23
 Thread         193 # local nodes            4
 Thread         193 # local sides          23
 Thread         197 # local nodes            4
 Thread         197 # local sides          24
 Thread         198 # local nodes            4
 Thread         198 # local sides          25
 Thread         192 # local nodes            4
 Thread         192 # local sides          23
 Thread         195 # local nodes            4
 Thread         195 # local sides          26
 Thread          86 # local nodes            4
 Thread          86 # local sides          23
 Thread           7 # local nodes            4
 Thread           7 # local sides          16
 Thread          87 # local nodes            4
 Thread          87 # local sides          25
 Thread           9 # local nodes            4
 Thread           9 # local sides          16
 Thread          85 # local nodes            4
 Thread          85 # local sides          25
 Thread           8 # local nodes            4
 Thread           8 # local sides          15
 Thread          89 # local nodes            4
 Thread          89 # local sides          25
 Thread         409 # local nodes            4
 Thread         409 # local sides          21
 Thread          10 # local nodes            4
 Thread          10 # local sides          15
 Thread          88 # local nodes            4
 Thread          88 # local sides          23
 Thread           1 # local nodes            4
 Thread           1 # local sides          15
 Thread         147 # local nodes            4
 Thread         147 # local sides          24
 Thread          93 # local nodes            4
 Thread          93 # local sides          22
 Thread         415 # local nodes            4
 Thread         415 # local sides          25
 Thread           3 # local nodes            4
 Thread           3 # local sides          16
 Thread         152 # local nodes            4
 Thread         152 # local sides          24
 Thread          84 # local nodes            4
 Thread          84 # local sides          23
 Thread         413 # local nodes            4
 Thread         413 # local sides          23
 Thread           4 # local nodes            4
 Thread           4 # local sides          16
 Thread         144 # local nodes            4
 Thread         144 # local sides          22
 Thread          90 # local nodes            4
 Thread          90 # local sides          25
 Thread         414 # local nodes            4
 Thread         414 # local sides          25
 Thread           5 # local nodes            4
 Thread           5 # local sides          16
 Thread         145 # local nodes            4
 Thread         145 # local sides          23
 Thread          91 # local nodes            4
 Thread          91 # local sides          25
 Thread         408 # local nodes            4
 Thread         408 # local sides          22
 Thread           2 # local nodes            4
 Thread           2 # local sides          15
 Thread         146 # local nodes            4
 Thread         146 # local sides          21
 Thread          92 # local nodes            4
 Thread          92 # local sides          22
 Thread         410 # local nodes            4
 Thread         410 # local sides          25
 Thread           6 # local nodes            4
 Thread           6 # local sides          16
 Thread          95 # local nodes            4
 Thread          95 # local sides          23
 Thread         411 # local nodes            4
 Thread         411 # local sides          24
 Thread          11 # local nodes            4
 Thread          11 # local sides          15
 Thread         149 # local nodes            4
 Thread         149 # local sides          24
 Thread          94 # local nodes            4
 Thread          94 # local sides          23
 Thread         412 # local nodes            4
 Thread         412 # local sides          23
 pre-partition
 # Nodes:         3070
 Thread         150 # local nodes            4
 Thread         150 # local sides          24
 Thread         419 # local nodes            4
 Thread         419 # local sides          26
 # Elements:         5780
 # Sides        17698
 np_perProcSum :           0           4           8          12          16
          20          24          28          32          36          40
          44          48          52          56          60          64
          68          72          76          80          84          88
          92          96         100         104         108         112
 Thread         151 # local nodes            4
 Thread         151 # local sides          26
 Thread         416 # local nodes            4
 Thread         416 # local sides          24
 Thread         604 # local nodes            4
 Thread         604 # local sides          23
         116         120         124         128         132         136
         140         144         148         152         156         160
         164         168         172         176         180         184
         188         192         196         200         204         208
         212         216         220         224         228         232
 Thread         148 # local nodes            4
 Thread         148 # local sides          24
 Thread         417 # local nodes            4
 Thread         417 # local sides          25
 Thread         605 # local nodes            4
 Thread         605 # local sides          20
         236         240         244         248         252         256
         260         264         268         272         276         280
         284         288         292         296         300         304
         308         312         316         320         324         328
         332         336         340         344         348         352
         356         360         364         368         372         376
         380         384         388         392         396         400
         404         408         412         416         420         424
 Thread         153 # local nodes            4
 Thread         153 # local sides          26
 Thread         418 # local nodes            4
 Thread         418 # local sides          23
 Thread         607 # local nodes            4
 Thread         607 # local sides          26
         428         432         436         440         444         448
         452         456         460         464         468         472
         476         480         484         488         492         496
         500         504         508         512         516         520
         524         528         532         536         540         544
 Thread         154 # local nodes            4
 Thread         154 # local sides          26
 Thread         608 # local nodes            4
 Thread         608 # local sides          24
         548         552         556         560         564         568
         572         576         580         584         588         592
         596         600         604         608         612         616
         620         624         628         632         636         640
         644         648         652         656         660         664
 Thread         155 # local nodes            4
 Thread         155 # local sides          22
 Thread         610 # local nodes            4
 Thread         610 # local sides          25
         668         672         676         680         684         688
         692         696         700         704         708         712
         716         720         724         728         732         736
         740         744         748         752         756         760
         764         768         772         776         780         784
         788         792         796         800         804         808
         812         816         820         824         828         832
         836         840         844         848         852         856
         860         864         868         872         876         880
         884         888         892         896         900         904
         908         912         916         920         924         928
         932         936         940         944         948         952
         956         960         964         968         972         976
         980         984         988         992         996        1000
        1004        1008        1012        1016        1020        1024
 Thread         601 # local nodes            4
 Thread         601 # local sides          25
        1028        1032        1036        1040        1044        1048
        1052        1056        1060        1064        1068        1072
        1076        1080        1084        1088        1092        1096
        1100        1104        1108        1112        1116        1120
 Thread         602 # local nodes            4
 Thread         602 # local sides          25
        1124        1128        1132        1136        1140        1144
        1148        1152        1156        1160        1164        1168
        1172        1176        1180        1184        1188        1192
        1196        1200        1204        1208        1212        1216
 Thread         603 # local nodes            4
 Thread         603 # local sides          23
        1220        1224        1228        1232        1236        1240
        1244        1248        1252        1256        1260        1264
        1268        1272        1276        1280        1284        1288
        1292        1296        1300        1304        1308        1312
        1316        1320        1324        1328        1332        1336
 Thread         609 # local nodes            4
 Thread         609 # local sides          24
 Thread         576 # local nodes            4
 Thread         576 # local sides          25
        1340        1344        1348        1352        1356        1360
        1364        1368        1372        1376        1380        1384
        1388        1392        1396        1400        1404        1408
 Thread         611 # local nodes            4
 Thread         611 # local sides          18
 Thread         579 # local nodes            4
 Thread         579 # local sides          24
        1412        1416        1420        1424        1428        1432
        1436        1440        1444        1448        1452        1456
        1460        1464        1468        1472        1476        1480
        1484        1488        1492        1496        1500        1504
 Thread         600 # local nodes            4
 Thread         600 # local sides          21
 Thread         582 # local nodes            4
 Thread         582 # local sides          24
        1508        1512        1516        1520        1524        1528
        1532        1536        1540        1544        1548        1552
        1556        1560        1564        1568        1572        1576
        1580        1584        1588        1592        1596        1600
 Thread         606 # local nodes            4
 Thread         606 # local sides          21
 Thread         586 # local nodes            4
 Thread         586 # local sides          25
        1604        1608        1612        1616        1620        1624
        1628        1632        1636        1640        1644        1648
        1652        1656        1660        1664        1668        1672
        1676        1680        1684        1688        1692        1696
        1700        1704        1708        1712        1716        1720
 Thread         577 # local nodes            4
 Thread         577 # local sides          23
        1724        1728        1732        1736        1740        1744
        1748        1752        1756        1760        1764        1768
        1772        1776        1780        1784        1788        1792
        1796        1800        1804        1808        1812        1816
        1820        1824        1828        1832        1836        1840
        1844        1848        1852        1856        1860        1864
        1868        1872        1876        1880        1884        1888
        1892        1896        1900        1904        1908        1912
        1916        1920        1924        1928        1932        1936
        1940        1944        1948        1952        1956        1960
        1964        1968        1972        1976        1980        1984
        1988        1992        1996        2000        2004        2008
        2012        2016        2020        2024        2028        2032
 Thread         578 # local nodes            4
 Thread         578 # local sides          23
        2036        2040        2044        2048        2052        2056
        2060        2064        2068        2072        2076        2080
 Thread         100 # local nodes            4
 Thread         100 # local sides          23
 Thread         580 # local nodes            4
 Thread         580 # local sides          23
        2084        2088        2092        2096        2100        2104
        2108        2112        2116        2120        2124        2128
        2132        2136        2140        2144        2148        2152
        2156        2160        2164        2168        2172        2176
        2180        2184        2188        2192        2196        2200
 Thread         102 # local nodes            4
 Thread         102 # local sides          24
 Thread         581 # local nodes            4
 Thread         581 # local sides          25
        2204        2208        2212        2216        2220        2224
        2228        2232        2236        2240        2244        2248
        2252        2256        2260        2264        2268        2272
        2276        2280        2284        2288        2292        2296
        2300        2304        2308        2312        2316        2320
        2324        2328        2332        2336        2340        2344
 Thread         103 # local nodes            4
 Thread         103 # local sides          24
 Thread         583 # local nodes            4
 Thread         583 # local sides          24
        2348        2352        2356        2360        2364        2368
        2372        2376        2380        2384        2388        2392
        2396        2400        2404        2408        2412        2416
        2420        2424        2428        2432        2436        2440
        2444        2448        2452        2456        2460        2464
 Thread         104 # local nodes            4
 Thread         104 # local sides          23
 Thread         584 # local nodes            4
 Thread         584 # local sides          19
        2468        2472        2476        2480        2484        2488
        2492        2496        2500        2504        2508        2512
        2516        2520        2524        2528        2532        2536
        2540        2544        2548        2552        2556        2560
        2564        2568        2572        2576        2580        2584
 Thread          99 # local nodes            4
 Thread          99 # local sides          24
 Thread         585 # local nodes            4
 Thread         585 # local sides          23
        2588        2592        2596        2600        2604        2608
        2612        2616        2620        2624        2628        2632
        2636        2640        2644        2648        2652        2656
        2660        2664        2668        2672        2676        2680
        2684        2688        2692        2696        2700        2704
 Thread         587 # local nodes            4
 Thread         587 # local sides          25
        2708        2712        2716        2720        2724        2728
        2732        2736        2740        2744        2748        2752
        2756        2760        2764        2768        2772        2776
        2780        2784        2788        2792        2796        2800
 Thread         106 # local nodes            4
 Thread         106 # local sides          22
        2804        2808        2812        2816        2820        2824
        2828        2832        2836        2840        2844        2848
        2852        2856        2860        2864        2868        3070
 Thread         107 # local nodes            4
 Thread         107 # local sides          24
 Thread           0 # local nodes            4
 Thread           0 # local sides          15
 Thread          96 # local nodes            4
 Thread          96 # local sides          24
 Thread         642 # local nodes            4
 Thread         642 # local sides          24
 Thread         266 # local nodes            4
 Thread         266 # local sides          24
 Thread          97 # local nodes            4
 Thread          97 # local sides          21
 Thread         645 # local nodes            4
 Thread         645 # local sides          25
 Thread         268 # local nodes            4
 Thread         268 # local sides          23
 Thread          98 # local nodes            4
 Thread          98 # local sides          23
 Thread         638 # local nodes            4
 Thread         638 # local sides          23
 Thread         270 # local nodes            4
 Thread         270 # local sides          21
 Thread         101 # local nodes            4
 Thread         101 # local sides          24
 Thread         640 # local nodes            4
 Thread         640 # local sides          27
 Thread         271 # local nodes            4
 Thread         271 # local sides          21
 Thread         105 # local nodes            4
 Thread         105 # local sides          23
 Thread         646 # local nodes            4
 Thread         646 # local sides          22
 Thread         272 # local nodes            4
 Thread         272 # local sides          24
 Thread         636 # local nodes            4
 Thread         636 # local sides          24
 Thread         615 # local nodes            4
 Thread         615 # local sides          25
 Thread         273 # local nodes            4
 Thread         273 # local sides          26
 Thread         314 # local nodes            4
 Thread         314 # local sides          23
 Thread         643 # local nodes            4
 Thread         643 # local sides          15
 Thread         617 # local nodes            4
 Thread         617 # local sides          20
 Thread         267 # local nodes            4
 Thread         267 # local sides          24
 Thread         315 # local nodes            4
 Thread         315 # local sides          24
 Thread         644 # local nodes            4
 Thread         644 # local sides          21
 Thread         613 # local nodes            4
 Thread         613 # local sides          24
 Thread         269 # local nodes            4
 Thread         269 # local sides          25
 Thread         316 # local nodes            4
 Thread         316 # local sides          26
 Thread         647 # local nodes            4
 Thread         647 # local sides          18
 Thread         614 # local nodes            4
 Thread         614 # local sides          23
 Thread         274 # local nodes            4
 Thread         274 # local sides          25
 Thread         321 # local nodes            4
 Thread         321 # local sides          23
 Thread         248 # local nodes            4
 Thread         248 # local sides          23
 Thread         639 # local nodes            4
 Thread         639 # local sides          19
 Thread         693 # local nodes            4
 Thread         693 # local sides          26
 Thread         619 # local nodes            4
 Thread         619 # local sides          26
 Thread         275 # local nodes            4
 Thread         275 # local sides          24
 Thread         323 # local nodes            4
 Thread         323 # local sides          24
 Thread         247 # local nodes            4
 Thread         247 # local sides          24
 Thread         641 # local nodes            4
 Thread         641 # local sides          25
 Thread         694 # local nodes            4
 Thread         694 # local sides          25
 Thread         264 # local nodes            4
 Thread         264 # local sides          24
 Thread         482 # local nodes            4
 Thread         482 # local sides          22
 Thread         240 # local nodes            4
 Thread         240 # local sides          23
 Thread         688 # local nodes            4
 Thread         688 # local sides          24
 Thread         616 # local nodes            4
 Thread         616 # local sides          24
 Thread         265 # local nodes            4
 Thread         265 # local sides          24
 Thread         483 # local nodes            4
 Thread         483 # local sides          24
 Thread         317 # local nodes            4
 Thread         317 # local sides          24
 Thread         241 # local nodes            4
 Thread         241 # local sides          26
 Thread         596 # local nodes            4
 Thread         596 # local sides          25
 Thread         689 # local nodes            4
 Thread         689 # local sides          24
 Thread         618 # local nodes            4
 Thread         618 # local sides          24
 Thread         488 # local nodes            4
 Thread         488 # local sides          24
 Thread         319 # local nodes            4
 Thread         319 # local sides          25
 Thread         242 # local nodes            4
 Thread         242 # local sides          24
 Thread         572 # local nodes            4
 Thread         572 # local sides          24
 Thread         598 # local nodes            4
 Thread         598 # local sides          26
 Thread         695 # local nodes            4
 Thread         695 # local sides          23
 Thread         620 # local nodes            4
 Thread         620 # local sides          24
 Thread         489 # local nodes            4
 Thread         489 # local sides          24
 Thread         322 # local nodes            4
 Thread         322 # local sides          23
 Thread         243 # local nodes            4
 Thread         243 # local sides          25
 Thread         573 # local nodes            4
 Thread         573 # local sides          24
 Thread         589 # local nodes            4
 Thread         589 # local sides          24
 Thread         556 # local nodes            4
 Thread         556 # local sides          24
 Thread         622 # local nodes            4
 Thread         622 # local sides          17
 Thread         480 # local nodes            4
 Thread         313 # local nodes            4
 Thread         313 # local sides          25
 Thread         204 # local nodes            4
 Thread         204 # local sides          23
 Thread         244 # local nodes            4
 Thread         244 # local sides          23
 Thread         375 # local nodes            4
 Thread         375 # local sides          24
 Thread         564 # local nodes            4
 Thread         564 # local sides          17
 Thread         590 # local nodes            4
 Thread         590 # local sides          23
 Thread         684 # local nodes            4
 Thread         684 # local sides          22
 Thread         560 # local nodes            4
 Thread         560 # local sides          23
 Thread         612 # local nodes            4
 Thread         612 # local sides          23
 Thread         481 # local nodes            4
 Thread         481 # local sides          22
 Thread         318 # local nodes            4
 Thread         318 # local sides          26
 Thread         207 # local nodes            4
 Thread         207 # local sides          24
 Thread         246 # local nodes            4
 Thread         246 # local sides          24
 Thread         377 # local nodes            4
 Thread         377 # local sides          25
 Thread         574 # local nodes            4
 Thread         574 # local sides          19
 Thread         591 # local nodes            4
 Thread         591 # local sides          23
 Thread         685 # local nodes            4
 Thread         685 # local sides          25
 Thread         557 # local nodes            4
 Thread         557 # local sides          24
 Thread         621 # local nodes            4
 Thread         621 # local sides          24
 Thread         486 # local nodes            4
 Thread         486 # local sides          25
 Thread         320 # local nodes            4
 Thread         320 # local sides          22
 Thread         214 # local nodes            4
 Thread         214 # local sides          25
 Thread         249 # local nodes            4
 Thread         249 # local sides          25
 Thread         381 # local nodes            4
 Thread         381 # local sides          25
 Thread         575 # local nodes            4
 Thread         575 # local sides          20
 Thread         686 # local nodes            4
 Thread         686 # local sides          18
 Thread         558 # local nodes            4
 Thread         558 # local sides          25
 Thread         623 # local nodes            4
 Thread         623 # local sides          20
 Thread         490 # local nodes            4
 Thread         490 # local sides          23
 Thread         312 # local nodes            4
 Thread         312 # local sides          24
 Thread         205 # local nodes            4
 Thread         205 # local sides          25
 Thread         250 # local nodes            4
 Thread         250 # local sides          23
 Thread         373 # local nodes            4
 Thread         373 # local sides          24
 Thread         594 # local nodes            4
 Thread         594 # local sides          23
 Thread         687 # local nodes            4
 Thread         687 # local sides          23
 Thread         562 # local nodes            4
 Thread         562 # local sides          25
 Thread         480 # local sides          22
 Thread         206 # local nodes            4
 Thread         206 # local sides          26
 Thread         251 # local nodes            4
 Thread         251 # local sides          23
 Thread         374 # local nodes            4
 Thread         374 # local sides          24
 Thread         565 # local nodes            4
 Thread         565 # local sides          22
 Thread         595 # local nodes            4
 Thread         595 # local sides          24
 Thread         690 # local nodes            4
 Thread         690 # local sides          23
 Thread         553 # local nodes            4
 Thread         553 # local sides          25
 Thread         484 # local nodes            4
 Thread         484 # local sides          26
 Thread         212 # local nodes            4
 Thread         212 # local sides          22
 Thread         245 # local nodes            4
 Thread         245 # local sides          25
 Thread         567 # local nodes            4
 Thread         567 # local sides          25
 Thread         597 # local nodes            4
 Thread         597 # local sides          25
 Thread         691 # local nodes            4
 Thread         691 # local sides          20
 Thread         561 # local nodes            4
 Thread         561 # local sides          24
 Thread         485 # local nodes            4
 Thread         485 # local sides          24
 Thread         213 # local nodes            4
 Thread         213 # local sides          21
 Thread         376 # local nodes            4
 Thread         376 # local sides          22
 Thread         571 # local nodes            4
 Thread         571 # local sides          23
 Thread         599 # local nodes            4
 Thread         599 # local sides          19
 Thread         692 # local nodes            4
 Thread         692 # local sides          24
 Thread         555 # local nodes            4
 Thread         555 # local sides          23
 Thread         487 # local nodes            4
 Thread         487 # local sides          23
 Thread         215 # local nodes            4
 Thread         215 # local sides          24
 Thread         378 # local nodes            4
 Thread         378 # local sides          25
 Thread         566 # local nodes            4
 Thread         566 # local sides          23
 Thread         588 # local nodes            4
 Thread         588 # local sides          23
 Thread         554 # local nodes            4
 Thread         554 # local sides          24
 Thread         491 # local nodes            4
 Thread         491 # local sides          27
 Thread         208 # local nodes            4
 Thread         208 # local sides          24
 Thread         422 # local nodes            4
 Thread         422 # local sides          22
 Thread         379 # local nodes            4
 Thread         379 # local sides          25
 Thread         568 # local nodes            4
 Thread         568 # local sides          24
 Thread         592 # local nodes            4
 Thread         592 # local sides          18
 Thread         552 # local nodes            4
 Thread         552 # local sides          14
 Thread         209 # local nodes            4
 Thread         209 # local sides          23
 Thread         425 # local nodes            4
 Thread         425 # local sides          23
 Thread         380 # local nodes            4
 Thread         380 # local sides          26
 Thread         569 # local nodes            4
 Thread         569 # local sides          25
 Thread         593 # local nodes            4
 Thread         593 # local sides          23
 Thread         559 # local nodes            4
 Thread         559 # local sides          24
 Thread         210 # local nodes            4
 Thread         210 # local sides          25
 Thread         426 # local nodes            4
 Thread         426 # local sides          24
 Thread         382 # local nodes            4
 Thread         382 # local sides          22
 Thread         570 # local nodes            4
 Thread         570 # local sides          24
 Thread         563 # local nodes            4
 Thread         563 # local sides          21
 Thread         211 # local nodes            4
 Thread         211 # local sides          22
 Thread         428 # local nodes            4
 Thread         428 # local sides          23
 Thread         383 # local nodes            4
 Thread         383 # local sides          24
 Thread         429 # local nodes            4
 Thread         429 # local sides          23
 Thread         372 # local nodes            4
 Thread         372 # local sides          22
 Thread         440 # local nodes            4
 Thread         440 # local sides          25
 Thread         434 # local nodes            4
 Thread         434 # local sides          24
 Thread         431 # local nodes            4
 Thread         431 # local sides          24
 Thread         437 # local nodes            4
 Thread         437 # local sides          23
 Thread         420 # local nodes            4
 Thread         420 # local sides          24
 Thread         438 # local nodes            4
 Thread         438 # local sides          25
 Thread         423 # local nodes            4
 Thread         423 # local sides          25
 Thread         433 # local nodes            4
 Thread         433 # local sides          22
 Thread         424 # local nodes            4
 Thread         424 # local sides          26
 Thread         427 # local nodes            4
 Thread         427 # local sides          24
 Thread         435 # local nodes            4
 Thread         435 # local sides          22
 Thread         430 # local nodes            4
 Thread         430 # local sides          23
 Thread          32 # local nodes            4
 Thread          32 # local sides          25
 Thread         436 # local nodes            4
 Thread         436 # local sides          26
 Thread          35 # local nodes            4
 Thread          35 # local sides          24
 Thread         441 # local nodes            4
 Thread         441 # local sides          25
 Thread          28 # local nodes            4
 Thread          28 # local sides          25
 Thread         442 # local nodes            4
 Thread         442 # local sides          23
 Thread         252 # local nodes            4
 Thread         252 # local sides          23
 Thread          33 # local nodes            4
 Thread          33 # local sides          26
 Thread         443 # local nodes            4
 Thread         443 # local sides          24
 Thread         256 # local nodes            4
 Thread         256 # local sides          23
 Thread          25 # local nodes            4
 Thread          25 # local sides          24
 Thread         432 # local nodes            4
 Thread         432 # local sides          25
 Thread         257 # local nodes            4
 Thread         257 # local sides          24
 Thread          34 # local nodes            4
 Thread          34 # local sides          24
 Thread         439 # local nodes            4
 Thread         439 # local sides          24
 Thread         253 # local nodes            4
 Thread         253 # local sides          21
 Thread          24 # local nodes            4
 Thread          24 # local sides          24
 Thread         254 # local nodes            4
 Thread         254 # local sides          24
 Thread          30 # local nodes            4
 Thread          30 # local sides          24
 Thread          69 # local nodes            4
 Thread          69 # local sides          24
 Thread          26 # local nodes            4
 Thread          26 # local sides          25
 Thread          61 # local nodes            4
 Thread          61 # local sides          23
 Thread         255 # local nodes            4
 Thread         255 # local sides          24
 Thread          63 # local nodes            4
 Thread          63 # local sides          25
 Thread         258 # local nodes            4
 Thread         258 # local sides          24
 Thread         421 # local nodes            4
 Thread         421 # local sides          24
 Thread          27 # local nodes            4
 Thread          27 # local sides          23
 Thread          66 # local nodes            4
 Thread          66 # local sides          24
 Thread         259 # local nodes            4
 Thread         259 # local sides          26
 Thread          29 # local nodes            4
 Thread          29 # local sides          25
 Thread          68 # local nodes            4
 Thread          68 # local sides          24
 Thread         260 # local nodes            4
 Thread         260 # local sides          23
 Thread          31 # local nodes            4
 Thread          31 # local sides          25
 Thread         110 # local nodes            4
 Thread         110 # local sides          24
 Thread          60 # local nodes            4
 Thread          60 # local sides          24
 Thread         261 # local nodes            4
 Thread         261 # local sides          23
 Thread         111 # local nodes            4
 Thread         111 # local sides          24
 Thread          62 # local nodes            4
 Thread          62 # local sides          24
 Thread         262 # local nodes            4
 Thread         262 # local sides          25
 Thread         113 # local nodes            4
 Thread         113 # local sides          23
 Thread          64 # local nodes            4
 Thread          64 # local sides          24
 Thread         263 # local nodes            4
 Thread         263 # local sides          24
 Thread         115 # local nodes            4
 Thread         115 # local sides          24
 Thread          59 # local nodes            4
 Thread          59 # local sides          24
 Thread          65 # local nodes            4
 Thread          65 # local sides          23
 Thread         109 # local nodes            4
 Thread         109 # local sides          24
 Thread          67 # local nodes            4
 Thread          67 # local sides          22
 Thread          58 # local nodes            4
 Thread          58 # local sides          24
 Thread          70 # local nodes            4
 Thread          70 # local sides          23
 Thread         112 # local nodes            4
 Thread         112 # local sides          23
 Thread          55 # local nodes            4
 Thread          55 # local sides          19
 Thread          71 # local nodes            4
 Thread          71 # local sides          26
 Thread         114 # local nodes            4
 Thread         114 # local sides          23
 Thread          50 # local nodes            4
 Thread          50 # local sides          23
 Thread         117 # local nodes            4
 Thread         117 # local sides          25
 Thread          52 # local nodes            4
 Thread          52 # local sides          23
 Thread         119 # local nodes            4
 Thread         119 # local sides          26
 Thread          51 # local nodes            4
 Thread          51 # local sides          23
 Thread         116 # local nodes            4
 Thread         116 # local sides          23
 Thread         118 # local nodes            4
 Thread         118 # local sides          25
 Thread          56 # local nodes            4
 Thread          56 # local sides          24
 Thread         108 # local nodes            4
 Thread         108 # local sides          24
 Thread          57 # local nodes            4
 Thread          57 # local sides          23
 Thread          48 # local nodes            4
 Thread          48 # local sides          24
 Thread          49 # local nodes            4
 Thread          49 # local sides          24
 Thread          53 # local nodes            4
 Thread          53 # local sides          24
 Thread          54 # local nodes            4
 Thread          54 # local sides          24
 Thread          42 # local nodes            4
 Thread          42 # local sides          25
 Thread          45 # local nodes            4
 Thread          45 # local sides          26
 Thread         472 # local nodes            4
 Thread         472 # local sides          25
 Thread          36 # local nodes            4
 Thread          36 # local sides          20
 Thread         473 # local nodes            4
 Thread         473 # local sides          23
 Thread          37 # local nodes            4
 Thread          37 # local sides          27
 Thread         470 # local nodes            4
 Thread         470 # local sides          24
 Thread          38 # local nodes            4
 Thread          38 # local sides          25
 Thread         711 # local nodes            4
 Thread         711 # local sides          24
 Thread         475 # local nodes            4
 Thread         475 # local sides          25
 Thread          39 # local nodes            4
 Thread          39 # local sides          25
 Thread         715 # local nodes            4
 Thread         715 # local sides          21
 Thread         476 # local nodes            4
 Thread         476 # local sides          23
 Thread          41 # local nodes            4
 Thread          41 # local sides          23
 Thread         714 # local nodes            4
 Thread         714 # local sides          19
 Thread          43 # local nodes            4
 Thread          43 # local sides          24
 Thread         295 # local nodes            4
 Thread         295 # local sides          25
 Thread         716 # local nodes            4
 Thread         716 # local sides          18
 Thread         477 # local nodes            4
 Thread         477 # local sides          26
 Thread          46 # local nodes            4
 Thread          46 # local sides          25
 Thread         296 # local nodes            4
 Thread         296 # local sides          24
 Thread         717 # local nodes          202
 Thread         717 # local sides        1023
 Thread         468 # local nodes            4
 Thread         468 # local sides          23
 Thread          40 # local nodes            4
 Thread          40 # local sides          23
 Thread         298 # local nodes            4
 Thread         298 # local sides          25
 Thread         469 # local nodes            4
 Thread         469 # local sides          23
 Thread          44 # local nodes            4
 Thread          44 # local sides          24
 Thread         294 # local nodes            4
 Thread         294 # local sides          25
 Thread         709 # local nodes            4
 Thread         709 # local sides          15
 Thread         471 # local nodes            4
 Thread         471 # local sides          24
 Thread          47 # local nodes            4
 Thread          47 # local sides          26
 Thread         299 # local nodes            4
 Thread         299 # local sides          23
 Thread         710 # local nodes            4
 Thread         710 # local sides          23
 Thread         474 # local nodes            4
 Thread         474 # local sides          25
 Thread         712 # local nodes            4
 Thread         712 # local sides          17
 Thread         478 # local nodes            4
 Thread         478 # local sides          25
 Thread         288 # local nodes            4
 Thread         288 # local sides          21
 Thread         708 # local nodes            4
 Thread         708 # local sides          21
 Thread         479 # local nodes            4
 Thread         479 # local sides          26
 Thread         290 # local nodes            4
 Thread         290 # local sides          22
 Thread         713 # local nodes            4
 Thread         713 # local sides          18
 Thread         291 # local nodes            4
 Thread         291 # local sides          24
 Thread         289 # local nodes            4
 Thread         289 # local sides          24
 Thread         293 # local nodes            4
 Thread         293 # local sides          25
 Thread         297 # local nodes            4
 Thread         297 # local sides          24
 Thread         292 # local nodes            4
 Thread         292 # local sides          22
 Thread         284 # local nodes            4
 Thread         284 # local sides          24
 Thread         228 # local nodes            4
 Thread         228 # local sides          24
 Thread         278 # local nodes            4
 Thread         278 # local sides          25
 Thread         229 # local nodes            4
 Thread         229 # local sides          23
 Thread         279 # local nodes            4
 Thread         279 # local sides          23
 Thread         231 # local nodes            4
 Thread         231 # local sides          24
 Thread         281 # local nodes            4
 Thread         281 # local sides          23
 Thread         232 # local nodes            4
 Thread         232 # local sides          23
 Thread         282 # local nodes            4
 Thread         282 # local sides          24
 Thread         233 # local nodes            4
 Thread         233 # local sides          22
 Thread         285 # local nodes            4
 Thread         285 # local sides          24
 Thread         179 # local nodes            4
 Thread         179 # local sides          23
 Thread         230 # local nodes            4
 Thread         230 # local sides          25
 Thread         280 # local nodes            4
 Thread         280 # local sides          24
 Thread         168 # local nodes            4
 Thread         168 # local sides          23
 Thread         234 # local nodes            4
 Thread         234 # local sides          25
 Thread         283 # local nodes            4
 Thread         283 # local sides          24
 Thread         172 # local nodes            4
 Thread         172 # local sides          24
 Thread         235 # local nodes            4
 Thread         235 # local sides          24
 Thread         286 # local nodes            4
 Thread         286 # local sides          24
 Thread         177 # local nodes            4
 Thread         177 # local sides          23
 Thread         236 # local nodes            4
 Thread         236 # local sides          23
 Thread         287 # local nodes            4
 Thread         287 # local sides          23
 Thread         169 # local nodes            4
 Thread         169 # local sides          23
 Thread         447 # local nodes            4
 Thread         447 # local sides          22
 Thread         237 # local nodes            4
 Thread         237 # local sides          24
 Thread         276 # local nodes            4
 Thread         276 # local sides          24
 Thread         449 # local nodes            4
 Thread         449 # local sides          25
 Thread         238 # local nodes            4
 Thread         238 # local sides          23
 Thread         277 # local nodes            4
 Thread         277 # local sides          23
 Thread         170 # local nodes            4
 Thread         170 # local sides          23
 Thread         451 # local nodes            4
 Thread         451 # local sides          25
 Thread         239 # local nodes            4
 Thread         239 # local sides          24
 Thread         173 # local nodes            4
 Thread         173 # local sides          23
 Thread         455 # local nodes            4
 Thread         455 # local sides          22
 Thread         174 # local nodes            4
 Thread         174 # local sides          25
 Thread         446 # local nodes            4
 Thread         446 # local sides          19
 Thread         171 # local nodes            4
 Thread         171 # local sides          24
 Thread         450 # local nodes            4
 Thread         450 # local sides          23
 Thread         175 # local nodes            4
 Thread         175 # local sides          23
 Thread         454 # local nodes            4
 Thread         454 # local sides          22
 Thread         176 # local nodes            4
 Thread         176 # local sides          23
 Thread         444 # local nodes            4
 Thread         444 # local sides          25
 Thread         178 # local nodes            4
 Thread         178 # local sides          23
 Thread         453 # local nodes            4
 Thread         453 # local sides          26
 Thread         445 # local nodes            4
 Thread         445 # local sides          24
 Thread         448 # local nodes            4
 Thread         448 # local sides          25
 Thread         452 # local nodes            4
 Thread         452 # local sides          23
 Thread         509 # local nodes            4
 Thread         509 # local sides          22
 Thread         122 # local nodes            4
 Thread         122 # local sides          24
 Thread         120 # local nodes            4
 Thread         120 # local sides          22
 Thread         513 # local nodes            4
 Thread         513 # local sides          24
 Thread         127 # local nodes            4
 Thread         127 # local sides          21
 Thread         507 # local nodes            4
 Thread         507 # local sides          23
 Thread         121 # local nodes            4
 Thread         121 # local sides          23
 Thread         508 # local nodes            4
 Thread         508 # local sides          25
 Thread         125 # local nodes            4
 Thread         125 # local sides          25
 Thread         510 # local nodes            4
 Thread         510 # local sides          25
 Thread         396 # local nodes            4
 Thread         396 # local sides          23
 Thread         129 # local nodes            4
 Thread         129 # local sides          25
 Thread         512 # local nodes            4
 Thread         512 # local sides          21
 Thread         397 # local nodes            4
 Thread         397 # local sides          26
 Thread         130 # local nodes            4
 Thread         130 # local sides          23
 Thread         404 # local nodes            4
 Thread         404 # local sides          23
 Thread         123 # local nodes            4
 Thread         123 # local sides          23
 Thread         515 # local nodes            4
 Thread         515 # local sides          23
 Thread         398 # local nodes            4
 Thread         398 # local sides          23
 Thread         124 # local nodes            4
 Thread         124 # local sides          24
 Thread         504 # local nodes            4
 Thread         504 # local sides          25
 Thread         399 # local nodes            4
 Thread         399 # local sides          22
 Thread         126 # local nodes            4
 Thread         126 # local sides          23
 Thread         505 # local nodes            4
 Thread         505 # local sides          24
 Thread         128 # local nodes            4
 Thread         128 # local sides          24
 Thread          13 # local nodes            4
 Thread          13 # local sides          16
 Thread         506 # local nodes            4
 Thread         506 # local sides          21
 Thread         406 # local nodes            4
 Thread         406 # local sides          24
 Thread         131 # local nodes            4
 Thread         131 # local sides          25
 Thread          17 # local nodes            4
 Thread          17 # local sides          16
 Thread         511 # local nodes            4
 Thread         511 # local sides          21
 Thread         402 # local nodes            4
 Thread         402 # local sides          24
 Thread          12 # local nodes            4
 Thread          12 # local sides          16
 Thread         514 # local nodes            4
 Thread         514 # local sides          24
 Thread         403 # local nodes            4
 Thread         403 # local sides          23
 Thread          14 # local nodes            4
 Thread          14 # local sides          15
 Thread         405 # local nodes            4
 Thread         405 # local sides          25
 Thread          15 # local nodes            4
 Thread          15 # local sides          16
 Thread         653 # local nodes            4
 Thread         653 # local sides          15
 Thread         407 # local nodes            4
 Thread         407 # local sides          24
 Thread         658 # local nodes            4
 Thread         658 # local sides          19
 Thread         400 # local nodes            4
 Thread         400 # local sides          22
 Thread          20 # local nodes            4
 Thread          20 # local sides          26
 Thread         657 # local nodes            4
 Thread         657 # local sides          23
 Thread         401 # local nodes            4
 Thread         401 # local sides          24
 Thread          21 # local nodes            4
 Thread          21 # local sides          24
 Thread         652 # local nodes            4
 Thread         652 # local sides          14
 Thread          22 # local nodes            4
 Thread          22 # local sides          25
 Thread         650 # local nodes            4
 Thread         650 # local sides          17
 Thread          16 # local nodes            4
 Thread          16 # local sides          17
 Thread          18 # local nodes            4
 Thread          18 # local sides          16
 Thread          19 # local nodes            4
 Thread          19 # local sides          22
 Thread         648 # local nodes            4
 Thread          23 # local nodes            4
 Thread          23 # local sides          24
 Thread         648 # local sides          22
 Thread         649 # local nodes            4
 Thread         649 # local sides          24
 Thread         656 # local nodes            4
 Thread         656 # local sides          21
 Thread         651 # local nodes            4
 Thread         651 # local sides          20
 Thread         655 # local nodes            4
 Thread         655 # local sides          19
 Thread         654 # local nodes            4
 Thread         654 # local sides          23
 Thread         659 # local nodes            4
 Thread         659 # local sides          22
 Thread         365 # local nodes            4
 Thread         365 # local sides          23
 Thread         360 # local nodes            4
 Thread         360 # local sides          23
 Thread         369 # local nodes            4
 Thread         369 # local sides          23
 Thread         361 # local nodes            4
 Thread         361 # local sides          23
 Thread         362 # local nodes            4
 Thread         362 # local sides          24
 Thread         366 # local nodes            4
 Thread         366 # local sides          23
 Thread         367 # local nodes            4
 Thread         367 # local sides          23
 Thread         368 # local nodes            4
 Thread         368 # local sides          23
 Thread         370 # local nodes            4
 Thread         370 # local sides          24
 Thread         371 # local nodes            4
 Thread         371 # local sides          20
 Thread         637 # local nodes            4
 Thread         637 # local sides          24
 Thread         363 # local nodes            4
 Thread         363 # local sides          25
 Thread         364 # local nodes            4
 Thread         364 # local sides          25
 Thread         132 # local nodes            4
 Thread         132 # local sides          25
 Thread         137 # local nodes            4
 Thread         137 # local sides          25
 Thread         141 # local nodes            4
 Thread         141 # local sides          23
 Thread         134 # local nodes            4
 Thread         134 # local sides          25
 Thread         138 # local nodes            4
 Thread         138 # local sides          24
 Thread         327 # local nodes            4
 Thread         327 # local sides          24
 Thread         330 # local nodes            4
 Thread         330 # local sides          24
 Thread         140 # local nodes            4
 Thread         140 # local sides          26
 Thread         333 # local nodes            4
 Thread         333 # local sides          25
 Thread         142 # local nodes            4
 Thread         142 # local sides          23
 Thread         334 # local nodes            4
 Thread         334 # local sides          22
 Thread         143 # local nodes            4
 Thread         143 # local sides          23
 Thread         324 # local nodes            4
 Thread         324 # local sides          26
 Thread         133 # local nodes            4
 Thread         133 # local sides          25
 Thread         135 # local nodes            4
 Thread         135 # local sides          24
 Thread         136 # local nodes            4
 Thread         136 # local sides          25
 Thread         325 # local nodes            4
 Thread         325 # local sides          23
 Thread         139 # local nodes            4
 Thread         139 # local sides          23
 Thread         328 # local nodes            4
 Thread         328 # local sides          24
 Thread         329 # local nodes            4
 Thread         329 # local sides          24
 Thread         332 # local nodes            4
 Thread         332 # local sides          23
 Thread         335 # local nodes            4
 Thread         335 # local sides          23
 Thread         326 # local nodes            4
 Thread         326 # local sides          24
 Thread         331 # local nodes            4
 Thread         331 # local sides          23
 Thread         498 # local nodes            4
 Thread         498 # local sides          25
 Thread         499 # local nodes            4
 Thread         499 # local sides          23
 Thread         503 # local nodes            4
 Thread         503 # local sides          25
 Thread         494 # local nodes            4
 Thread         494 # local sides          24
 Thread         500 # local nodes            4
 Thread         500 # local sides          24
 Thread         493 # local nodes            4
 Thread         493 # local sides          22
 Thread         496 # local nodes            4
 Thread         496 # local sides          21
 Thread         501 # local nodes            4
 Thread         501 # local sides          24
 Thread         492 # local nodes            4
 Thread         492 # local sides          26
 Thread         495 # local nodes            4
 Thread         495 # local sides          24
 Thread         497 # local nodes            4
 Thread         497 # local sides          25
 Thread         706 # local nodes            4
 Thread         706 # local sides          24
 Thread         502 # local nodes            4
 Thread         502 # local sides          23
 Thread         703 # local nodes            4
 Thread         703 # local sides          21
 Thread         707 # local nodes            4
 Thread         707 # local sides          23
 Thread         697 # local nodes            4
 Thread         697 # local sides          23
 Thread         704 # local nodes            4
 Thread         704 # local sides          23
 Thread         700 # local nodes            4
 Thread         700 # local sides          25
 Thread         705 # local nodes            4
 Thread         705 # local sides          16
 Thread         696 # local nodes            4
 Thread         696 # local sides          21
 Thread         698 # local nodes            4
 Thread         698 # local sides          25
 Thread         626 # local nodes            4
 Thread         626 # local sides          25
 Thread         699 # local nodes            4
 Thread         699 # local sides          26
 Thread         634 # local nodes            4
 Thread         634 # local sides          20
 Thread         701 # local nodes            4
 Thread         701 # local sides          15
 Thread         627 # local nodes            4
 Thread         627 # local sides          24
 Thread         702 # local nodes            4
 Thread         702 # local sides          24
 Thread         628 # local nodes            4
 Thread         628 # local sides          16
 Thread         625 # local nodes            4
 Thread         625 # local sides          23
 Thread         339 # local nodes            4
 Thread         339 # local sides          24
 Thread         629 # local nodes            4
 Thread         629 # local sides          25
 Thread         341 # local nodes            4
 Thread         341 # local sides          24
 Thread         631 # local nodes            4
 Thread         631 # local sides          24
 Thread         336 # local nodes            4
 Thread         336 # local sides          24
 Thread         633 # local nodes            4
 Thread         633 # local sides          23
 Thread         338 # local nodes            4
 Thread         338 # local sides          21
 Thread         635 # local nodes            4
 Thread         635 # local sides          23
 Thread         347 # local nodes            4
 Thread         347 # local sides          25
 Thread         624 # local nodes            4
 Thread         624 # local sides          23
 Thread         630 # local nodes            4
 Thread         630 # local sides          23
 Thread         337 # local nodes            4
 Thread         337 # local sides          23
 Thread         632 # local nodes            4
 Thread         632 # local sides          22
 Thread         342 # local nodes            4
 Thread         342 # local sides          25
 Thread         340 # local nodes            4
 Thread         340 # local sides          26
 Thread         343 # local nodes            4
 Thread         343 # local sides          25
 Thread         344 # local nodes            4
 Thread         344 # local sides          23
 Thread         516 # local nodes            4
 Thread         516 # local sides          25
 Thread         345 # local nodes            4
 Thread         345 # local sides          24
 Thread         521 # local nodes            4
 Thread         521 # local sides          23
 Thread         346 # local nodes            4
 Thread         346 # local sides          23
 Thread         526 # local nodes            4
 Thread         526 # local sides          22
 Thread         518 # local nodes            4
 Thread         518 # local sides          23
 Thread         519 # local nodes            4
 Thread         519 # local sides          24
 Thread         520 # local nodes            4
 Thread         520 # local sides          23
 Thread         522 # local nodes            4
 Thread         522 # local sides          26
 Thread         523 # local nodes            4
 Thread         523 # local sides          23
 Thread         524 # local nodes            4
 Thread         524 # local sides          24
 Thread         525 # local nodes            4
 Thread         525 # local sides          24
 Thread         527 # local nodes            4
 Thread         527 # local sides          22
 Thread         517 # local nodes            4
 Thread         517 # local sides          26
 Thread         165 # local nodes            4
 Thread         165 # local sides          24
 Thread         164 # local nodes            4
 Thread         164 # local sides          24
 Thread         166 # local nodes            4
 Thread         166 # local sides          24
 Thread         158 # local nodes            4
 Thread         158 # local sides          22
 Thread         163 # local nodes            4
 Thread         163 # local sides          25
 Thread         156 # local nodes            4
 Thread         162 # local nodes            4
 Thread         162 # local sides          24
 Thread         156 # local sides          23
 Thread         157 # local nodes            4
 Thread         157 # local sides          24
 Thread         159 # local nodes            4
 Thread         159 # local sides          25
 Thread         167 # local nodes            4
 Thread         167 # local sides          25
 Thread         161 # local nodes            4
 Thread         161 # local sides          24
 Thread         545 # local nodes            4
 Thread         545 # local sides          22
 Thread         542 # local nodes            4
 Thread         542 # local sides          25
 Thread         546 # local nodes            4
 Thread         546 # local sides          24
 Thread         549 # local nodes            4
 Thread         549 # local sides          23
 Thread         550 # local nodes            4
 Thread         550 # local sides          26
 Thread         544 # local nodes            4
 Thread         544 # local sides          24
 Thread         551 # local nodes            4
 Thread         551 # local sides          23
 Thread         540 # local nodes            4
 Thread         540 # local sides          21
 Thread         225 # local nodes            4
 Thread         225 # local sides          23
 Thread         541 # local nodes            4
 Thread         541 # local sides          25
 Thread         227 # local nodes            4
 Thread         227 # local sides          24
 Thread         543 # local nodes            4
 Thread         543 # local sides          24
 Thread         218 # local nodes            4
 Thread         218 # local sides          24
 Thread         547 # local nodes            4
 Thread         547 # local sides          22
 Thread         220 # local nodes            4
 Thread         220 # local sides          23
 Thread         548 # local nodes            4
 Thread         548 # local sides          26
 Thread         217 # local nodes            4
 Thread         217 # local sides          24
 Thread         219 # local nodes            4
 Thread         219 # local sides          25
 Thread         221 # local nodes            4
 Thread         221 # local sides          24
 Thread         222 # local nodes            4
 Thread         222 # local sides          23
 Thread         223 # local nodes            4
 Thread         223 # local sides          25
 Thread         224 # local nodes            4
 Thread         224 # local sides          24
 Thread         226 # local nodes            4
 Thread         226 # local sides          23
 Thread         216 # local nodes            4
 Thread         216 # local sides          24
 Thread         160 # local nodes            4
 Thread         160 # local sides          23
 Thread         674 # local nodes            4
 Thread         674 # local sides          24
 Thread         680 # local nodes            4
 Thread         680 # local sides          22
 Thread         673 # local nodes            4
 Thread         673 # local sides          23
 Thread         675 # local nodes            4
 Thread         675 # local sides          23
 Thread         677 # local nodes            4
 Thread         677 # local sides          24
 Thread         679 # local nodes            4
 Thread         679 # local sides          23
 Thread         681 # local nodes            4
 Thread         681 # local sides          19
 Thread         672 # local nodes            4
 Thread         672 # local sides          22
 Thread         676 # local nodes            4
 Thread         676 # local sides          18
 Thread         678 # local nodes            4
 Thread         678 # local sides          26
 Thread         682 # local nodes            4
 Thread         682 # local sides          24
 Thread         683 # local nodes            4
 Thread         683 # local sides          25
 Thread         464 # local nodes            4
 Thread         464 # local sides          21
 Thread         458 # local nodes            4
 Thread         458 # local sides          23
 Thread         459 # local nodes            4
 Thread         459 # local sides          23
 Thread         466 # local nodes            4
 Thread         466 # local sides          24
 Thread         460 # local nodes            4
 Thread         460 # local sides          24
 Thread         461 # local nodes            4
 Thread         461 # local sides          23
 Thread         467 # local nodes            4
 Thread         467 # local sides          25
 Thread         465 # local nodes            4
 Thread         465 # local sides          24
 Thread         457 # local nodes            4
 Thread         457 # local sides          24
 Thread          76 # local nodes            4
 Thread          76 # local sides          23
 Thread         463 # local nodes            4
 Thread         463 # local sides          24
 Thread          80 # local nodes            4
 Thread          80 # local sides          25
 Thread         456 # local nodes            4
 Thread         456 # local sides          25
 Thread          81 # local nodes            4
 Thread          81 # local sides          25
 Thread         462 # local nodes            4
 Thread         462 # local sides          21
 Thread          82 # local nodes            4
 Thread          82 # local sides          26
 Thread          73 # local nodes            4
 Thread          73 # local sides          24
 Thread          83 # local nodes            4
 Thread          83 # local sides          25
 Thread          78 # local nodes            4
 Thread          78 # local sides          25
 Thread          79 # local nodes            4
 Thread          79 # local sides          24
 Thread         394 # local nodes            4
 Thread         394 # local sides          25
 Thread          72 # local nodes            4
 Thread          72 # local sides          25
 Thread         386 # local nodes            4
 Thread         386 # local sides          24
 Thread         184 # local nodes            4
 Thread         184 # local sides          25
 Thread          74 # local nodes            4
 Thread          74 # local sides          24
 Thread         387 # local nodes            4
 Thread         387 # local sides          25
 Thread         185 # local nodes            4
 Thread         185 # local sides          24
 Thread          77 # local nodes            4
 Thread          77 # local sides          23
 Thread         392 # local nodes            4
 Thread         392 # local sides          24
 Thread         181 # local nodes            4
 Thread         181 # local sides          23
 Thread          75 # local nodes            4
 Thread          75 # local sides          21
 Thread         388 # local nodes            4
 Thread         388 # local sides          24
 Thread         182 # local nodes            4
 Thread         182 # local sides          24
 Thread         183 # local nodes            4
 Thread         183 # local sides          23
 Thread         351 # local nodes            4
 Thread         351 # local sides          26
 Thread         187 # local nodes            4
 Thread         187 # local sides          26
 Thread         356 # local nodes            4
 Thread         356 # local sides          23
 Thread         389 # local nodes            4
 Thread         389 # local sides          21
 Thread         188 # local nodes            4
 Thread         188 # local sides          23
 Thread         359 # local nodes            4
 Thread         359 # local sides          23
 Thread         390 # local nodes            4
 Thread         390 # local sides          22
 Thread         190 # local nodes            4
 Thread         190 # local sides          21
 Thread         348 # local nodes            4
 Thread         348 # local sides          24
 Thread         391 # local nodes            4
 Thread         391 # local sides          24
 Thread         180 # local nodes            4
 Thread         180 # local sides          23
 Thread         354 # local nodes            4
 Thread         354 # local sides          24
 Thread         393 # local nodes            4
 Thread         393 # local sides          25
 Thread         186 # local nodes            4
 Thread         186 # local sides          22
 Thread         395 # local nodes            4
 Thread         395 # local sides          22
 Thread         191 # local nodes            4
 Thread         191 # local sides          24
 Thread         355 # local nodes            4
 Thread         355 # local sides          24
 Thread         384 # local nodes            4
 Thread         189 # local nodes            4
 Thread         189 # local sides          25
 Thread         358 # local nodes            4
 Thread         358 # local sides          24
 Thread         384 # local sides          26
 Thread         349 # local nodes            4
 Thread         349 # local sides          27
 Thread         385 # local nodes            4
 Thread         385 # local sides          23
 Thread         350 # local nodes            4
 Thread         350 # local sides          25
 Thread         353 # local nodes            4
 Thread         353 # local sides          21
 Thread         357 # local nodes            4
 Thread         357 # local sides          24
 Thread         352 # local nodes            4
 Thread         352 # local sides          23
 Thread         670 # local nodes            4
 Thread         670 # local sides          26
 Thread         671 # local nodes            4
 Thread         671 # local sides          18
 Thread         668 # local nodes            4
 Thread         668 # local sides          24
 Thread         669 # local nodes            4
 Thread         669 # local sides          24
 Thread         308 # local nodes            4
 Thread         308 # local sides          24
 Thread         660 # local nodes            4
 Thread         660 # local sides          24
 Thread         311 # local nodes            4
 Thread         311 # local sides          24
 Thread         664 # local nodes            4
 Thread         664 # local sides          20
 Thread         302 # local nodes            4
 Thread         302 # local sides          24
 Thread         662 # local nodes            4
 Thread         662 # local sides          24
 Thread         305 # local nodes            4
 Thread         305 # local sides          23
 Thread         667 # local nodes            4
 Thread         667 # local sides          21
 Thread         310 # local nodes            4
 Thread         310 # local sides          24
 Thread         665 # local nodes            4
 Thread         665 # local sides          24
 Thread         300 # local nodes            4
 Thread         300 # local sides          24
 Thread         666 # local nodes            4
 Thread         666 # local sides          24
 Thread         301 # local nodes            4
 Thread         301 # local sides          24
 Thread         661 # local nodes            4
 Thread         661 # local sides          20
 Thread         303 # local nodes            4
 Thread         303 # local sides          24
 Thread         304 # local nodes            4
 Thread         304 # local sides          23
 Thread         663 # local nodes            4
 Thread         663 # local sides          23
 Thread         306 # local nodes            4
 Thread         306 # local sides          25
 Thread         307 # local nodes            4
 Thread         307 # local sides          23
 Thread         309 # local nodes            4
 Thread         309 # local sides          24
 Thread           1 # local elements           10
 Thread           1 # local nodes            4
 Thread           1 # local sides          19
 Thread           1 # of ghosts           7
 Thread           1 # of neighbor domains           4
 Thread         187 # local elements           16
 Thread         187 # local nodes            4
 Thread         187 # local sides          24
 Thread         187 # of ghosts          10
 Thread         187 # of neighbor domains           6
 Thread           5 # local elements           15
 Thread           5 # local nodes            4
 Thread           5 # local sides          23
 Thread           5 # of ghosts           9
 Thread           5 # of neighbor domains           6
 Thread          90 # local elements           17
 Thread          90 # local nodes            4
 Thread          90 # local sides          24
 Thread          90 # of ghosts          11
 Thread          90 # of neighbor domains           4
 Thread           8 # local elements           22
 Thread           8 # local nodes            5
 Thread           8 # local sides          30
 Thread           8 # of ghosts          16
 Thread           8 # of neighbor domains           9
 Thread          91 # local elements            7
 Thread          91 # local nodes            4
 Thread          91 # local sides          15
 Thread          91 # of ghosts           4
 Thread          91 # of neighbor domains           3
 Thread          98 # local elements           12
 Thread          98 # local nodes            5
 Thread          98 # local sides          23
 Thread          98 # of ghosts           7
 Thread          98 # of neighbor domains           3
 Thread         360 # local elements           18
[...]
  WAVEWATCH III calculating for 2015/12/14 19:00:00 UTC at 23:04:31
  WAVEWATCH III calculating for 2015/12/14 19:02:30 UTC at 23:04:31
  WAVEWATCH III calculating for 2015/12/14 19:05:00 UTC at 23:04:32
  WAVEWATCH III calculating for 2015/12/14 19:07:30 UTC at 23:04:33
  WAVEWATCH III calculating for 2015/12/14 19:10:00 UTC at 23:04:34
  WAVEWATCH III calculating for 2015/12/14 19:12:30 UTC at 23:04:34
  WAVEWATCH III calculating for 2015/12/14 19:15:00 UTC at 23:04:35
  WAVEWATCH III calculating for 2015/12/14 19:17:30 UTC at 23:04:36
  WAVEWATCH III calculating for 2015/12/14 19:20:00 UTC at 23:04:36
  WAVEWATCH III calculating for 2015/12/14 19:22:30 UTC at 23:04:37
  WAVEWATCH III calculating for 2015/12/14 19:25:00 UTC at 23:04:38
  WAVEWATCH III calculating for 2015/12/14 19:27:30 UTC at 23:04:39
  WAVEWATCH III calculating for 2015/12/14 19:30:00 UTC at 23:04:39
  WAVEWATCH III calculating for 2015/12/14 19:32:30 UTC at 23:04:40
  WAVEWATCH III calculating for 2015/12/14 19:35:00 UTC at 23:04:41
  WAVEWATCH III calculating for 2015/12/14 19:37:30 UTC at 23:04:42
  WAVEWATCH III calculating for 2015/12/14 19:40:00 UTC at 23:04:42
  WAVEWATCH III calculating for 2015/12/14 19:42:30 UTC at 23:04:43
  WAVEWATCH III calculating for 2015/12/14 19:45:00 UTC at 23:04:44
  WAVEWATCH III calculating for 2015/12/14 19:45:05 UTC at 23:04:45
  WAVEWATCH III reached the end of a computation loop at 23:04:45

  Updating input at 2015/12/14 19:45:05 UTC
     Updating winds        
  
  WAVEWATCH III calculating for 2015/12/14 19:47:33 UTC at 23:04:45
  WAVEWATCH III calculating for 2015/12/14 19:50:00 UTC at 23:04:46
  WAVEWATCH III calculating for 2015/12/14 19:52:30 UTC at 23:04:47
  WAVEWATCH III calculating for 2015/12/14 19:55:00 UTC at 23:04:48
  WAVEWATCH III calculating for 2015/12/14 19:57:30 UTC at 23:04:48
  WAVEWATCH III calculating for 2015/12/14 20:00:00 UTC at 23:04:49
  WAVEWATCH III calculating for 2015/12/14 20:02:30 UTC at 23:04:50
  WAVEWATCH III calculating for 2015/12/14 20:05:00 UTC at 23:04:51
  WAVEWATCH III calculating for 2015/12/14 20:07:30 UTC at 23:04:52
  WAVEWATCH III calculating for 2015/12/14 20:10:00 UTC at 23:04:53
  WAVEWATCH III calculating for 2015/12/14 20:12:30 UTC at 23:04:53
  WAVEWATCH III calculating for 2015/12/14 20:15:00 UTC at 23:04:54
  WAVEWATCH III calculating for 2015/12/14 20:17:30 UTC at 23:04:55
  WAVEWATCH III calculating for 2015/12/14 20:20:00 UTC at 23:04:56
  WAVEWATCH III calculating for 2015/12/14 20:22:30 UTC at 23:04:57
  WAVEWATCH III calculating for 2015/12/14 20:25:00 UTC at 23:04:58
  WAVEWATCH III calculating for 2015/12/14 20:27:30 UTC at 23:04:59
  WAVEWATCH III calculating for 2015/12/14 20:30:00 UTC at 23:05:00
  WAVEWATCH III calculating for 2015/12/14 20:32:30 UTC at 23:05:00
  WAVEWATCH III calculating for 2015/12/14 20:35:00 UTC at 23:05:01
  WAVEWATCH III calculating for 2015/12/14 20:37:30 UTC at 23:05:02
  WAVEWATCH III calculating for 2015/12/14 20:40:00 UTC at 23:05:03
  WAVEWATCH III calculating for 2015/12/14 20:42:30 UTC at 23:05:04
  WAVEWATCH III calculating for 2015/12/14 20:45:00 UTC at 23:05:05
  WAVEWATCH III calculating for 2015/12/14 20:47:30 UTC at 23:05:05
  WAVEWATCH III calculating for 2015/12/14 20:50:00 UTC at 23:05:06
  WAVEWATCH III calculating for 2015/12/14 20:52:30 UTC at 23:05:07
  WAVEWATCH III calculating for 2015/12/14 20:55:00 UTC at 23:05:08
  WAVEWATCH III calculating for 2015/12/14 20:57:30 UTC at 23:05:09
  WAVEWATCH III calculating for 2015/12/14 21:00:00 UTC at 23:05:10
  WAVEWATCH III calculating for 2015/12/14 21:02:30 UTC at 23:05:10
  WAVEWATCH III calculating for 2015/12/14 21:05:00 UTC at 23:05:11
  WAVEWATCH III calculating for 2015/12/14 21:07:30 UTC at 23:05:12
  WAVEWATCH III calculating for 2015/12/14 21:10:00 UTC at 23:05:13
  WAVEWATCH III calculating for 2015/12/14 21:12:26 UTC at 23:05:14
  WAVEWATCH III reached the end of a computation loop at 23:05:14

  Updating input at 2015/12/14 21:12:26 UTC
     Updating winds        
  
  WAVEWATCH III calculating for 2015/12/14 21:13:43 UTC at 23:05:14
  WAVEWATCH III calculating for 2015/12/14 21:15:00 UTC at 23:05:15
  WAVEWATCH III calculating for 2015/12/14 21:17:30 UTC at 23:05:15
  WAVEWATCH III calculating for 2015/12/14 21:20:00 UTC at 23:05:16
  WAVEWATCH III calculating for 2015/12/14 21:22:30 UTC at 23:05:16
  WAVEWATCH III calculating for 2015/12/14 21:25:00 UTC at 23:05:17
  WAVEWATCH III calculating for 2015/12/14 21:27:30 UTC at 23:05:17
  WAVEWATCH III calculating for 2015/12/14 21:30:00 UTC at 23:05:18
  WAVEWATCH III calculating for 2015/12/14 21:32:30 UTC at 23:05:18
  WAVEWATCH III calculating for 2015/12/14 21:35:00 UTC at 23:05:19
  WAVEWATCH III calculating for 2015/12/14 21:37:30 UTC at 23:05:19
  WAVEWATCH III calculating for 2015/12/14 21:40:00 UTC at 23:05:20
  WAVEWATCH III calculating for 2015/12/14 21:42:30 UTC at 23:05:20
  WAVEWATCH III calculating for 2015/12/14 21:45:00 UTC at 23:05:21
  WAVEWATCH III calculating for 2015/12/14 21:47:30 UTC at 23:05:21
  WAVEWATCH III calculating for 2015/12/14 21:50:00 UTC at 23:05:22
  WAVEWATCH III calculating for 2015/12/14 21:52:30 UTC at 23:05:22
  WAVEWATCH III calculating for 2015/12/14 21:55:00 UTC at 23:05:23
  WAVEWATCH III calculating for 2015/12/14 21:57:30 UTC at 23:05:23
  WAVEWATCH III calculating for 2015/12/14 22:00:00 UTC at 23:05:24
  WAVEWATCH III calculating for 2015/12/14 22:02:30 UTC at 23:05:25
  WAVEWATCH III calculating for 2015/12/14 22:05:00 UTC at 23:05:25
  WAVEWATCH III calculating for 2015/12/14 22:07:30 UTC at 23:05:26
  WAVEWATCH III calculating for 2015/12/14 22:10:00 UTC at 23:05:26
  WAVEWATCH III calculating for 2015/12/14 22:12:30 UTC at 23:05:27
  WAVEWATCH III calculating for 2015/12/14 22:15:00 UTC at 23:05:27
  WAVEWATCH III calculating for 2015/12/14 22:17:30 UTC at 23:05:28
  WAVEWATCH III calculating for 2015/12/14 22:20:00 UTC at 23:05:28
  WAVEWATCH III calculating for 2015/12/14 22:22:30 UTC at 23:05:29
  WAVEWATCH III calculating for 2015/12/14 22:25:00 UTC at 23:05:29
  WAVEWATCH III calculating for 2015/12/14 22:27:30 UTC at 23:05:30
  WAVEWATCH III calculating for 2015/12/14 22:30:00 UTC at 23:05:30
  WAVEWATCH III calculating for 2015/12/14 22:32:30 UTC at 23:05:31
  WAVEWATCH III calculating for 2015/12/14 22:35:00 UTC at 23:05:31
  WAVEWATCH III calculating for 2015/12/14 22:37:23 UTC at 23:05:32
  WAVEWATCH III calculating for 2015/12/14 22:39:46 UTC at 23:05:32
  WAVEWATCH III reached the end of a computation loop at 23:05:33

  Updating input at 2015/12/14 22:39:46 UTC
     Updating winds        
  
  WAVEWATCH III calculating for 2015/12/14 22:40:00 UTC at 23:05:33
  WAVEWATCH III calculating for 2015/12/14 22:42:30 UTC at 23:05:33
  WAVEWATCH III calculating for 2015/12/14 22:45:00 UTC at 23:05:33
  WAVEWATCH III calculating for 2015/12/14 22:47:30 UTC at 23:05:34
  WAVEWATCH III calculating for 2015/12/14 22:50:00 UTC at 23:05:34
  WAVEWATCH III calculating for 2015/12/14 22:52:30 UTC at 23:05:34
  WAVEWATCH III calculating for 2015/12/14 22:55:00 UTC at 23:05:35
  WAVEWATCH III calculating for 2015/12/14 22:57:30 UTC at 23:05:35
  WAVEWATCH III calculating for 2015/12/14 23:00:00 UTC at 23:05:35
  WAVEWATCH III calculating for 2015/12/14 23:02:30 UTC at 23:05:35
  WAVEWATCH III calculating for 2015/12/14 23:05:00 UTC at 23:05:36
  WAVEWATCH III calculating for 2015/12/14 23:07:30 UTC at 23:05:36
  WAVEWATCH III calculating for 2015/12/14 23:10:00 UTC at 23:05:36
  WAVEWATCH III calculating for 2015/12/14 23:12:30 UTC at 23:05:37
  WAVEWATCH III calculating for 2015/12/14 23:15:00 UTC at 23:05:37
  WAVEWATCH III calculating for 2015/12/14 23:17:30 UTC at 23:05:37
  WAVEWATCH III calculating for 2015/12/14 23:20:00 UTC at 23:05:37
  WAVEWATCH III calculating for 2015/12/14 23:22:30 UTC at 23:05:38
  WAVEWATCH III calculating for 2015/12/14 23:25:00 UTC at 23:05:38
  WAVEWATCH III calculating for 2015/12/14 23:27:30 UTC at 23:05:38
  WAVEWATCH III calculating for 2015/12/14 23:30:00 UTC at 23:05:39
  WAVEWATCH III calculating for 2015/12/14 23:32:30 UTC at 23:05:39
  WAVEWATCH III calculating for 2015/12/14 23:35:00 UTC at 23:05:39
  WAVEWATCH III calculating for 2015/12/14 23:37:30 UTC at 23:05:39
  WAVEWATCH III calculating for 2015/12/14 23:40:00 UTC at 23:05:40
  WAVEWATCH III calculating for 2015/12/14 23:42:30 UTC at 23:05:40
  WAVEWATCH III calculating for 2015/12/14 23:45:00 UTC at 23:05:40
  WAVEWATCH III calculating for 2015/12/14 23:47:30 UTC at 23:05:41
  WAVEWATCH III calculating for 2015/12/14 23:50:00 UTC at 23:05:41
  WAVEWATCH III calculating for 2015/12/14 23:52:30 UTC at 23:05:41
  WAVEWATCH III calculating for 2015/12/14 23:55:00 UTC at 23:05:41
  WAVEWATCH III calculating for 2015/12/14 23:57:30 UTC at 23:05:42
  WAVEWATCH III calculating for 2015/12/15 00:00:00 UTC at 23:05:42
  WAVEWATCH III calculating for 2015/12/15 00:02:30 UTC at 23:05:42
  WAVEWATCH III calculating for 2015/12/15 00:05:00 UTC at 23:05:43
  WAVEWATCH III calculating for 2015/12/15 00:07:07 UTC at 23:05:43
  WAVEWATCH III reached the end of a computation loop at 23:05:43

  Updating input at 2015/12/15 00:07:07 UTC
     Updating winds        
  
  WAVEWATCH III calculating for 2015/12/15 00:08:34 UTC at 23:05:43
  WAVEWATCH III calculating for 2015/12/15 00:10:00 UTC at 23:05:44
  WAVEWATCH III calculating for 2015/12/15 00:12:30 UTC at 23:05:44
  WAVEWATCH III calculating for 2015/12/15 00:15:00 UTC at 23:05:45
  WAVEWATCH III calculating for 2015/12/15 00:17:30 UTC at 23:05:45
  WAVEWATCH III calculating for 2015/12/15 00:20:00 UTC at 23:05:46
  WAVEWATCH III calculating for 2015/12/15 00:22:30 UTC at 23:05:47
  WAVEWATCH III calculating for 2015/12/15 00:25:00 UTC at 23:05:47
  WAVEWATCH III calculating for 2015/12/15 00:27:30 UTC at 23:05:48
  WAVEWATCH III calculating for 2015/12/15 00:30:00 UTC at 23:05:48
  WAVEWATCH III calculating for 2015/12/15 00:32:30 UTC at 23:05:49
  WAVEWATCH III calculating for 2015/12/15 00:35:00 UTC at 23:05:49
  WAVEWATCH III calculating for 2015/12/15 00:37:30 UTC at 23:05:50
  WAVEWATCH III calculating for 2015/12/15 00:40:00 UTC at 23:05:50
  WAVEWATCH III calculating for 2015/12/15 00:42:30 UTC at 23:05:51
  WAVEWATCH III calculating for 2015/12/15 00:45:00 UTC at 23:05:52
  WAVEWATCH III calculating for 2015/12/15 00:47:30 UTC at 23:05:52
  WAVEWATCH III calculating for 2015/12/15 00:50:00 UTC at 23:05:53
  WAVEWATCH III calculating for 2015/12/15 00:52:30 UTC at 23:05:53
  WAVEWATCH III calculating for 2015/12/15 00:55:00 UTC at 23:05:54
  WAVEWATCH III calculating for 2015/12/15 00:57:30 UTC at 23:05:54
  WAVEWATCH III calculating for 2015/12/15 01:00:00 UTC at 23:05:55
  WAVEWATCH III calculating for 2015/12/15 01:02:30 UTC at 23:05:56
  WAVEWATCH III calculating for 2015/12/15 01:05:00 UTC at 23:05:56
  WAVEWATCH III calculating for 2015/12/15 01:07:30 UTC at 23:05:57
  WAVEWATCH III calculating for 2015/12/15 01:10:00 UTC at 23:05:57
  WAVEWATCH III calculating for 2015/12/15 01:12:30 UTC at 23:05:58
  WAVEWATCH III calculating for 2015/12/15 01:15:00 UTC at 23:05:58
  WAVEWATCH III calculating for 2015/12/15 01:17:30 UTC at 23:05:59
  WAVEWATCH III calculating for 2015/12/15 01:20:00 UTC at 23:05:59
  WAVEWATCH III calculating for 2015/12/15 01:22:30 UTC at 23:06:00
  WAVEWATCH III calculating for 2015/12/15 01:25:00 UTC at 23:06:01
  WAVEWATCH III calculating for 2015/12/15 01:27:30 UTC at 23:06:01
  WAVEWATCH III calculating for 2015/12/15 01:30:00 UTC at 23:06:02
  WAVEWATCH III calculating for 2015/12/15 01:32:14 UTC at 23:06:02
  WAVEWATCH III calculating for 2015/12/15 01:34:27 UTC at 23:06:03
  WAVEWATCH III reached the end of a computation loop at 23:06:03

  Updating input at 2015/12/15 01:34:27 UTC
     Updating winds        
  
  WAVEWATCH III calculating for 2015/12/15 01:35:00 UTC at 23:06:03
  WAVEWATCH III calculating for 2015/12/15 01:37:30 UTC at 23:06:04
  WAVEWATCH III calculating for 2015/12/15 01:40:00 UTC at 23:06:04
  WAVEWATCH III calculating for 2015/12/15 01:42:30 UTC at 23:06:04
  WAVEWATCH III calculating for 2015/12/15 01:45:00 UTC at 23:06:05
  WAVEWATCH III calculating for 2015/12/15 01:47:30 UTC at 23:06:05
  WAVEWATCH III calculating for 2015/12/15 01:50:00 UTC at 23:06:05
  WAVEWATCH III calculating for 2015/12/15 01:52:30 UTC at 23:06:06
  WAVEWATCH III calculating for 2015/12/15 01:55:00 UTC at 23:06:06
  WAVEWATCH III calculating for 2015/12/15 01:57:30 UTC at 23:06:06
  WAVEWATCH III calculating for 2015/12/15 02:00:00 UTC at 23:06:07
  WAVEWATCH III calculating for 2015/12/15 02:02:30 UTC at 23:06:07
  WAVEWATCH III calculating for 2015/12/15 02:05:00 UTC at 23:06:07
  WAVEWATCH III calculating for 2015/12/15 02:07:30 UTC at 23:06:08
  WAVEWATCH III calculating for 2015/12/15 02:10:00 UTC at 23:06:08
  WAVEWATCH III calculating for 2015/12/15 02:12:30 UTC at 23:06:08
  WAVEWATCH III calculating for 2015/12/15 02:15:00 UTC at 23:06:09
  WAVEWATCH III calculating for 2015/12/15 02:17:30 UTC at 23:06:09
  WAVEWATCH III calculating for 2015/12/15 02:20:00 UTC at 23:06:09
  WAVEWATCH III calculating for 2015/12/15 02:22:30 UTC at 23:06:10
  WAVEWATCH III calculating for 2015/12/15 02:25:00 UTC at 23:06:10
  WAVEWATCH III calculating for 2015/12/15 02:27:30 UTC at 23:06:10
  WAVEWATCH III calculating for 2015/12/15 02:30:00 UTC at 23:06:11
  WAVEWATCH III calculating for 2015/12/15 02:32:30 UTC at 23:06:11
  WAVEWATCH III calculating for 2015/12/15 02:35:00 UTC at 23:06:11
  WAVEWATCH III calculating for 2015/12/15 02:37:30 UTC at 23:06:12
  WAVEWATCH III calculating for 2015/12/15 02:40:00 UTC at 23:06:12
  WAVEWATCH III calculating for 2015/12/15 02:42:30 UTC at 23:06:12
  WAVEWATCH III calculating for 2015/12/15 02:45:00 UTC at 23:06:13
  WAVEWATCH III calculating for 2015/12/15 02:47:30 UTC at 23:06:13
  WAVEWATCH III calculating for 2015/12/15 02:50:00 UTC at 23:06:14
  WAVEWATCH III calculating for 2015/12/15 02:52:30 UTC at 23:06:14
  WAVEWATCH III calculating for 2015/12/15 02:55:00 UTC at 23:06:14
  WAVEWATCH III calculating for 2015/12/15 02:57:30 UTC at 23:06:15
  WAVEWATCH III calculating for 2015/12/15 03:00:00 UTC at 23:06:15
  WAVEWATCH III calculating for 2015/12/15 03:01:47 UTC at 23:06:15
  WAVEWATCH III reached the end of a computation loop at 23:06:16

  Updating input at 2015/12/15 03:01:47 UTC
     Updating winds        
  
  WAVEWATCH III calculating for 2015/12/15 03:03:24 UTC at 23:06:16
  WAVEWATCH III calculating for 2015/12/15 03:05:00 UTC at 23:06:16
  WAVEWATCH III calculating for 2015/12/15 03:07:30 UTC at 23:06:17
  WAVEWATCH III calculating for 2015/12/15 03:10:00 UTC at 23:06:18
  WAVEWATCH III calculating for 2015/12/15 03:12:30 UTC at 23:06:18
  WAVEWATCH III calculating for 2015/12/15 03:15:00 UTC at 23:06:19
  WAVEWATCH III calculating for 2015/12/15 03:17:30 UTC at 23:06:19
  WAVEWATCH III calculating for 2015/12/15 03:20:00 UTC at 23:06:20
  WAVEWATCH III calculating for 2015/12/15 03:22:30 UTC at 23:06:21
  WAVEWATCH III calculating for 2015/12/15 03:25:00 UTC at 23:06:21
  WAVEWATCH III calculating for 2015/12/15 03:27:30 UTC at 23:06:22
  WAVEWATCH III calculating for 2015/12/15 03:30:00 UTC at 23:06:23
  WAVEWATCH III calculating for 2015/12/15 03:32:30 UTC at 23:06:23
  WAVEWATCH III calculating for 2015/12/15 03:35:00 UTC at 23:06:24
  WAVEWATCH III calculating for 2015/12/15 03:37:30 UTC at 23:06:24
  WAVEWATCH III calculating for 2015/12/15 03:40:00 UTC at 23:06:25
  WAVEWATCH III calculating for 2015/12/15 03:42:30 UTC at 23:06:26
  WAVEWATCH III calculating for 2015/12/15 03:45:00 UTC at 23:06:26
  WAVEWATCH III calculating for 2015/12/15 03:47:30 UTC at 23:06:27
  WAVEWATCH III calculating for 2015/12/15 03:50:00 UTC at 23:06:28
  WAVEWATCH III calculating for 2015/12/15 03:52:30 UTC at 23:06:28
  WAVEWATCH III calculating for 2015/12/15 03:55:00 UTC at 23:06:29
  WAVEWATCH III calculating for 2015/12/15 03:57:30 UTC at 23:06:30
  WAVEWATCH III calculating for 2015/12/15 04:00:00 UTC at 23:06:30
  WAVEWATCH III calculating for 2015/12/15 04:02:30 UTC at 23:06:31
  WAVEWATCH III calculating for 2015/12/15 04:05:00 UTC at 23:06:31
  WAVEWATCH III calculating for 2015/12/15 04:07:30 UTC at 23:06:32
  WAVEWATCH III calculating for 2015/12/15 04:10:00 UTC at 23:06:32
  WAVEWATCH III calculating for 2015/12/15 04:12:30 UTC at 23:06:33
  WAVEWATCH III calculating for 2015/12/15 04:15:00 UTC at 23:06:34
  WAVEWATCH III calculating for 2015/12/15 04:17:30 UTC at 23:06:34
  WAVEWATCH III calculating for 2015/12/15 04:20:00 UTC at 23:06:35
  WAVEWATCH III calculating for 2015/12/15 04:22:30 UTC at 23:06:35
  WAVEWATCH III calculating for 2015/12/15 04:25:00 UTC at 23:06:36
  WAVEWATCH III calculating for 2015/12/15 04:27:04 UTC at 23:06:37
  WAVEWATCH III calculating for 2015/12/15 04:29:07 UTC at 23:06:37
  WAVEWATCH III reached the end of a computation loop at 23:06:38

  Updating input at 2015/12/15 04:29:07 UTC
     Updating winds        
  
  WAVEWATCH III calculating for 2015/12/15 04:30:00 UTC at 23:06:38
  WAVEWATCH III calculating for 2015/12/15 04:32:30 UTC at 23:06:38
  WAVEWATCH III calculating for 2015/12/15 04:35:00 UTC at 23:06:39
  WAVEWATCH III calculating for 2015/12/15 04:37:30 UTC at 23:06:39
  WAVEWATCH III calculating for 2015/12/15 04:40:00 UTC at 23:06:40
  WAVEWATCH III calculating for 2015/12/15 04:42:30 UTC at 23:06:40
  WAVEWATCH III calculating for 2015/12/15 04:45:00 UTC at 23:06:40
  WAVEWATCH III calculating for 2015/12/15 04:47:30 UTC at 23:06:41
  WAVEWATCH III calculating for 2015/12/15 04:50:00 UTC at 23:06:41
  WAVEWATCH III calculating for 2015/12/15 04:52:30 UTC at 23:06:42
  WAVEWATCH III calculating for 2015/12/15 04:55:00 UTC at 23:06:42
  WAVEWATCH III calculating for 2015/12/15 04:57:30 UTC at 23:06:43
  WAVEWATCH III calculating for 2015/12/15 05:00:00 UTC at 23:06:43
  WAVEWATCH III calculating for 2015/12/15 05:02:30 UTC at 23:06:43
  WAVEWATCH III calculating for 2015/12/15 05:05:00 UTC at 23:06:44
  WAVEWATCH III calculating for 2015/12/15 05:07:30 UTC at 23:06:44
  WAVEWATCH III calculating for 2015/12/15 05:10:00 UTC at 23:06:45
  WAVEWATCH III calculating for 2015/12/15 05:12:30 UTC at 23:06:45
  WAVEWATCH III calculating for 2015/12/15 05:15:00 UTC at 23:06:45
  WAVEWATCH III calculating for 2015/12/15 05:17:30 UTC at 23:06:46
  WAVEWATCH III calculating for 2015/12/15 05:20:00 UTC at 23:06:46
  WAVEWATCH III calculating for 2015/12/15 05:22:30 UTC at 23:06:47
  WAVEWATCH III calculating for 2015/12/15 05:25:00 UTC at 23:06:47
  WAVEWATCH III calculating for 2015/12/15 05:27:30 UTC at 23:06:48
  WAVEWATCH III calculating for 2015/12/15 05:30:00 UTC at 23:06:48
  WAVEWATCH III calculating for 2015/12/15 05:32:30 UTC at 23:06:49
  WAVEWATCH III calculating for 2015/12/15 05:35:00 UTC at 23:06:49
  WAVEWATCH III calculating for 2015/12/15 05:37:30 UTC at 23:06:49
  WAVEWATCH III calculating for 2015/12/15 05:40:00 UTC at 23:06:50
  WAVEWATCH III calculating for 2015/12/15 05:42:30 UTC at 23:06:50
  WAVEWATCH III calculating for 2015/12/15 05:45:00 UTC at 23:06:51
  WAVEWATCH III calculating for 2015/12/15 05:47:30 UTC at 23:06:51
  WAVEWATCH III calculating for 2015/12/15 05:50:00 UTC at 23:06:52
  WAVEWATCH III calculating for 2015/12/15 05:52:30 UTC at 23:06:52
  WAVEWATCH III calculating for 2015/12/15 05:55:00 UTC at 23:06:52
  WAVEWATCH III calculating for 2015/12/15 05:56:27 UTC at 23:06:53
  WAVEWATCH III reached the end of a computation loop at 23:06:53

  Updating input at 2015/12/15 05:56:27 UTC
     Updating winds        
        Past last winds        
  
  WAVEWATCH III calculating for 2015/12/15 05:58:14 UTC at 23:06:53
  WAVEWATCH III calculating for 2015/12/15 06:00:00 UTC at 23:06:54
  WAVEWATCH III reached the end of a computation loop at 23:06:55

  Initialization time :      7.54 s
  Elapsed time        :    469.83 s


  End of program 
 ====================================
         WAVEWATCH III Program shell 

